1uts_h
     RDKit          3D

 35 38  0  0  0  0  0  0  0  0999 V2000
    0.7024    7.3575   21.1555 N   0  0  0  0  0  0  0  0  0  0  0  0
    0.7588    7.2495   18.7015 C   0  0  0  0  0  0  0  0  0  0  0  0
    2.3265    3.8110   16.2704 C   0  0  0  0  0  0  0  0  0  0  0  0
    1.7898    6.1171   18.7073 C   0  0  0  0  0  0  0  0  0  0  0  0
    1.1095    4.8539   18.7427 O   0  0  0  0  0  0  0  0  0  0  0  0
   -0.1242    7.1437   19.9462 C   0  0  0  0  0  0  0  0  0  0  0  0
    2.5919    2.5925   17.0686 N   0  0  0  0  0  0  0  0  0  0  0  0
    3.6869    1.8090   16.4377 C   0  0  0  0  0  0  0  0  0  0  0  0
    4.1829    0.7357   17.4110 C   0  0  0  0  0  0  0  0  0  0  0  0
    5.1507   -0.1461   16.7205 N   0  0  0  0  0  0  0  0  0  0  0  0
    5.2828   -1.4225   17.4803 C   0  0  0  0  0  0  0  0  0  0  0  0
    6.4687    0.5432   16.6285 C   0  0  0  0  0  0  0  0  0  0  0  0
    6.2903   -2.3395   16.7681 C   0  0  0  0  0  0  0  0  0  0  0  0
    7.4795   -0.3756   15.9188 C   0  0  0  0  0  0  0  0  0  0  0  0
    7.6091   -1.6511   16.6768 N   0  0  0  0  0  0  0  0  0  0  0  0
   -1.9120    4.9081   16.4845 C   0  0  0  0  0  0  0  0  0  0  0  0
   -4.4413    3.9643   10.5895 N   0  0  0  0  0  0  0  0  0  0  0  0
   -1.3617    4.4276   15.2723 C   0  0  0  0  0  0  0  0  0  0  0  0
    0.0126    4.0743   15.2097 C   0  0  0  0  0  0  0  0  0  0  0  0
    0.8368    4.1988   16.3616 C   0  0  0  0  0  0  0  0  0  0  0  0
    0.2837    4.6990   17.5786 C   0  0  0  0  0  0  0  0  0  0  0  0
   -1.0934    5.0482   17.6362 C   0  0  0  0  0  0  0  0  0  0  0  0
   -3.4215    4.3112    9.6744 C   0  0  0  0  0  0  0  0  0  0  0  0
   -2.2161    4.6084   10.3500 C   0  0  0  0  0  0  0  0  0  0  0  0
   -1.6499    4.5747   12.8485 C   0  0  0  0  0  0  0  0  0  0  0  0
   -2.1802    4.3089   14.1402 C   0  0  0  0  0  0  0  0  0  0  0  0
   -3.5396    3.9159   14.2813 C   0  0  0  0  0  0  0  0  0  0  0  0
   -4.3657    3.7870   13.1322 C   0  0  0  0  0  0  0  0  0  0  0  0
   -3.8255    4.0417   11.8328 C   0  0  0  0  0  0  0  0  0  0  0  0
   -2.4810    4.4311   11.6913 C   0  0  0  0  0  0  0  0  0  0  0  0
   -5.3696    3.7171   10.3913 H   0  0  0  0  0  0  0  0  0  0  0  0
    0.9594    8.3524   21.2246 H   0  0  0  0  0  0  0  0  0  0  0  0
    0.1656    7.0838   21.9908 H   0  0  0  0  0  0  0  0  0  0  0  0
    1.7370    2.0190   17.1129 H   0  0  0  0  0  0  0  0  0  0  0  0
    8.2800   -2.2666   16.1950 H   0  0  0  0  0  0  0  0  0  0  0  0
  1  6  1  0
  1 32  1  0
  1 33  1  0
  2  4  1  0
  2  6  1  0
  3  7  1  0
  3 20  1  0
  4  5  1  0
  5 21  1  0
  7  8  1  0
  7 34  1  0
  8  9  1  0
  9 10  1  0
 10 11  1  0
 10 12  1  0
 11 13  1  0
 12 14  1  0
 13 15  1  0
 14 15  1  0
 15 35  1  0
 16 18  2  0
 16 22  1  0
 17 23  1  0
 17 29  1  0
 17 31  1  0
 18 19  1  0
 18 26  1  0
 19 20  2  0
 20 21  1  0
 21 22  2  0
 23 24  2  0
 24 30  1  0
 25 26  2  0
 25 30  1  0
 26 27  1  0
 27 28  2  0
 28 29  1  0
 29 30  2  0
M  END
>  <CHROM.0>  (1) 
-37.28353140,159.53727189,-54.39170543

>  <CHROM.1>  (1) 
72.51533582,58.43133965,64.44334465,148.39819128,-111.38391806,61.21594075
84.87372474,167.04127403,172.98277327,-161.17026942,144.49258831,0.99622700
3.32809055,15.87886296,3.09337627,0.61803763,-2.19212609

>  <Name>  (1) 
1uts_h

>  <RI>  (1) 
3.0543e+07

>  <Rbt.Current_Directory>  (1) 
/home/jta30/NA_complexes/1uts

>  <Rbt.Executable>  (1) 
rbdock ($Id: //depot/dev/client3/rdock/2013.1/src/exe/rbdock.cxx#4 $)

>  <Rbt.Library>  (1) 
libRbt.so (2013.1, Build901 2013/11/27)

>  <Rbt.Parameter_File>  (1) 
/software/dev_tools/swtree/cs400_centos7.2_pe2016-08/rdock/2013.1/centos7.2_conda/build/data/scripts/dock.prm

>  <Rbt.Receptor>  (1) 
1uts.prm

>  <SCORE>  (1) 
-9.72515

>  <SCORE.INTER>  (1) 
-9.71619

>  <SCORE.INTER.CONST>  (1) 
1

>  <SCORE.INTER.POLAR>  (1) 
0

>  <SCORE.INTER.REPUL>  (1) 
0

>  <SCORE.INTER.ROT>  (1) 
11

>  <SCORE.INTER.VDW>  (1) 
-26.1162

>  <SCORE.INTER.norm>  (1) 
-0.323873

>  <SCORE.INTRA>  (1) 
-2.4982

>  <SCORE.INTRA.DIHEDRAL>  (1) 
-6.01288

>  <SCORE.INTRA.DIHEDRAL.0>  (1) 
14.7121

>  <SCORE.INTRA.POLAR>  (1) 
0

>  <SCORE.INTRA.POLAR.0>  (1) 
0

>  <SCORE.INTRA.REPUL>  (1) 
0

>  <SCORE.INTRA.REPUL.0>  (1) 
0

>  <SCORE.INTRA.VDW>  (1) 
0.508239

>  <SCORE.INTRA.VDW.0>  (1) 
-0.649219

>  <SCORE.INTRA.norm>  (1) 
-0.0832734

>  <SCORE.RESTR>  (1) 
0.0375855

>  <SCORE.RESTR.CAVITY>  (1) 
0.0375855

>  <SCORE.RESTR.norm>  (1) 
0.00125285

>  <SCORE.SYSTEM>  (1) 
2.45166

>  <SCORE.SYSTEM.CONST>  (1) 
0

>  <SCORE.SYSTEM.DIHEDRAL>  (1) 
4.45296

>  <SCORE.SYSTEM.POLAR>  (1) 
-0.132388

>  <SCORE.SYSTEM.REPUL>  (1) 
0.127336

>  <SCORE.SYSTEM.VDW>  (1) 
0.0386146

>  <SCORE.SYSTEM.norm>  (1) 
0.0817219

>  <SCORE.heavy>  (1) 
30

>  <SCORE.norm>  (1) 
-0.324172

>  <pdb_header>  (1) 
CRYST1    1.000    1.000    1.000  90.00  90.00  90.00 P 1           1

>  <Predicted_Rank>  (1) 
2.0

$$$$
1uts_h
     RDKit          3D

 35 38  0  0  0  0  0  0  0  0999 V2000
    1.0808    3.5460   15.2253 N   0  0  0  0  0  0  0  0  0  0  0  0
    1.6783    2.9176   17.5243 C   0  0  0  0  0  0  0  0  0  0  0  0
   -1.2963    5.0497   17.7043 C   0  0  0  0  0  0  0  0  0  0  0  0
    0.7319    1.7385   17.7670 C   0  0  0  0  0  0  0  0  0  0  0  0
   -0.5558    2.2348   18.1613 O   0  0  0  0  0  0  0  0  0  0  0  0
    2.1288    2.9195   16.0623 C   0  0  0  0  0  0  0  0  0  0  0  0
    0.1237    5.4058   17.4837 N   0  0  0  0  0  0  0  0  0  0  0  0
    0.7475    5.8006   18.7744 C   0  0  0  0  0  0  0  0  0  0  0  0
    2.2682    5.8807   18.6116 C   0  0  0  0  0  0  0  0  0  0  0  0
    2.8816    6.2727   19.9004 N   0  0  0  0  0  0  0  0  0  0  0  0
    3.4862    7.6292   19.7655 C   0  0  0  0  0  0  0  0  0  0  0  0
    3.9224    5.2744   20.2762 C   0  0  0  0  0  0  0  0  0  0  0  0
    4.1278    8.0382   21.1013 C   0  0  0  0  0  0  0  0  0  0  0  0
    4.5681    5.6849   21.6118 C   0  0  0  0  0  0  0  0  0  0  0  0
    5.1697    7.0408   21.4770 N   0  0  0  0  0  0  0  0  0  0  0  0
   -2.5279    1.8544   14.9679 C   0  0  0  0  0  0  0  0  0  0  0  0
   -5.8757    4.3558   10.0816 N   0  0  0  0  0  0  0  0  0  0  0  0
   -2.9197    3.1920   14.7222 C   0  0  0  0  0  0  0  0  0  0  0  0
   -2.5176    4.2226   15.6131 C   0  0  0  0  0  0  0  0  0  0  0  0
   -1.7200    3.9153   16.7495 C   0  0  0  0  0  0  0  0  0  0  0  0
   -1.3397    2.5635   17.0043 C   0  0  0  0  0  0  0  0  0  0  0  0
   -1.7425    1.5365   16.1073 C   0  0  0  0  0  0  0  0  0  0  0  0
   -4.7745    4.5593    9.2192 C   0  0  0  0  0  0  0  0  0  0  0  0
   -3.5534    4.4039    9.9137 C   0  0  0  0  0  0  0  0  0  0  0  0
   -3.0886    3.8080   12.3617 C   0  0  0  0  0  0  0  0  0  0  0  0
   -3.7074    3.4871   13.6005 C   0  0  0  0  0  0  0  0  0  0  0  0
   -5.1258    3.4590   13.6980 C   0  0  0  0  0  0  0  0  0  0  0  0
   -5.9230    3.7492   12.5579 C   0  0  0  0  0  0  0  0  0  0  0  0
   -5.2975    4.0581   11.3097 C   0  0  0  0  0  0  0  0  0  0  0  0
   -3.8943    4.0870   11.2114 C   0  0  0  0  0  0  0  0  0  0  0  0
   -6.8302    4.4051    9.8613 H   0  0  0  0  0  0  0  0  0  0  0  0
    0.3134    2.8754   15.0767 H   0  0  0  0  0  0  0  0  0  0  0  0
    0.7163    4.3833   15.7015 H   0  0  0  0  0  0  0  0  0  0  0  0
    0.1809    6.1897   16.8175 H   0  0  0  0  0  0  0  0  0  0  0  0
    5.5938    7.3157   22.3746 H   0  0  0  0  0  0  0  0  0  0  0  0
  1  6  1  0
  1 32  1  0
  1 33  1  0
  2  4  1  0
  2  6  1  0
  3  7  1  0
  3 20  1  0
  4  5  1  0
  5 21  1  0
  7  8  1  0
  7 34  1  0
  8  9  1  0
  9 10  1  0
 10 11  1  0
 10 12  1  0
 11 13  1  0
 12 14  1  0
 13 15  1  0
 14 15  1  0
 15 35  1  0
 16 18  2  0
 16 22  1  0
 17 23  1  0
 17 29  1  0
 17 31  1  0
 18 19  1  0
 18 26  1  0
 19 20  2  0
 20 21  1  0
 21 22  2  0
 23 24  2  0
 24 30  1  0
 25 26  2  0
 25 30  1  0
 26 27  1  0
 27 28  2  0
 28 29  1  0
 29 30  2  0
M  END
>  <CHROM.0>  (2) 
-36.86783669,-88.49132793,-54.92395625

>  <CHROM.1>  (2) 
-77.44768491,-117.85553842,81.37775878,-145.88831073,-103.90193415,84.68878941
-114.98955591,168.05353932,-179.94091286,-113.14811372,-89.80315773,-0.56571439
4.34479382,16.20629599,0.09573463,0.82644080,2.75270175

>  <Name>  (2) 
1uts_h

>  <RI>  (2) 
3.0543e+07

>  <Rbt.Current_Directory>  (2) 
/home/jta30/NA_complexes/1uts

>  <Rbt.Executable>  (2) 
rbdock ($Id: //depot/dev/client3/rdock/2013.1/src/exe/rbdock.cxx#4 $)

>  <Rbt.Library>  (2) 
libRbt.so (2013.1, Build901 2013/11/27)

>  <Rbt.Parameter_File>  (2) 
/software/dev_tools/swtree/cs400_centos7.2_pe2016-08/rdock/2013.1/centos7.2_conda/build/data/scripts/dock.prm

>  <Rbt.Receptor>  (2) 
1uts.prm

>  <SCORE>  (2) 
-8.51272

>  <SCORE.INTER>  (2) 
-9.68157

>  <SCORE.INTER.CONST>  (2) 
1

>  <SCORE.INTER.POLAR>  (2) 
-0.894427

>  <SCORE.INTER.REPUL>  (2) 
0.00226609

>  <SCORE.INTER.ROT>  (2) 
11

>  <SCORE.INTER.VDW>  (2) 
-23.0518

>  <SCORE.INTER.norm>  (2) 
-0.322719

>  <SCORE.INTRA>  (2) 
-4.37913

>  <SCORE.INTRA.DIHEDRAL>  (2) 
5.54696

>  <SCORE.INTRA.DIHEDRAL.0>  (2) 
14.7121

>  <SCORE.INTRA.POLAR>  (2) 
-1

>  <SCORE.INTRA.POLAR.0>  (2) 
0

>  <SCORE.INTRA.REPUL>  (2) 
0

>  <SCORE.INTRA.REPUL.0>  (2) 
0

>  <SCORE.INTRA.VDW>  (2) 
-3.75261

>  <SCORE.INTRA.VDW.0>  (2) 
-0.649219

>  <SCORE.INTRA.norm>  (2) 
-0.145971

>  <SCORE.RESTR>  (2) 
0.0102152

>  <SCORE.RESTR.CAVITY>  (2) 
0.0102152

>  <SCORE.RESTR.norm>  (2) 
0.000340508

>  <SCORE.SYSTEM>  (2) 
5.53776

>  <SCORE.SYSTEM.CONST>  (2) 
0

>  <SCORE.SYSTEM.DIHEDRAL>  (2) 
5.90908

>  <SCORE.SYSTEM.POLAR>  (2) 
-1.04003

>  <SCORE.SYSTEM.REPUL>  (2) 
0.884431

>  <SCORE.SYSTEM.VDW>  (2) 
1.69717

>  <SCORE.SYSTEM.norm>  (2) 
0.184592

>  <SCORE.heavy>  (2) 
30

>  <SCORE.norm>  (2) 
-0.283757

>  <pdb_header>  (2) 
CRYST1    1.000    1.000    1.000  90.00  90.00  90.00 P 1           1

>  <Predicted_Rank>  (2) 
3.0

$$$$
1uts_h
     RDKit          3D

 35 38  0  0  0  0  0  0  0  0999 V2000
   -8.0386    4.0592   16.2643 N   0  0  0  0  0  0  0  0  0  0  0  0
   -6.1195    3.3475   14.9049 C   0  0  0  0  0  0  0  0  0  0  0  0
   -2.3799    3.4855   12.7880 C   0  0  0  0  0  0  0  0  0  0  0  0
   -4.5998    3.1588   14.9053 C   0  0  0  0  0  0  0  0  0  0  0  0
   -3.9619    4.4316   15.0866 O   0  0  0  0  0  0  0  0  0  0  0  0
   -6.5712    3.8636   16.2724 C   0  0  0  0  0  0  0  0  0  0  0  0
   -2.9377    4.7151   12.1805 N   0  0  0  0  0  0  0  0  0  0  0  0
   -2.2119    5.0248   10.9203 C   0  0  0  0  0  0  0  0  0  0  0  0
   -2.9601    6.1140   10.1460 C   0  0  0  0  0  0  0  0  0  0  0  0
   -4.4149    5.9730   10.3793 N   0  0  0  0  0  0  0  0  0  0  0  0
   -4.8884    4.6934    9.7773 C   0  0  0  0  0  0  0  0  0  0  0  0
   -5.1278    7.1303    9.7682 C   0  0  0  0  0  0  0  0  0  0  0  0
   -6.4001    4.5454   10.0143 C   0  0  0  0  0  0  0  0  0  0  0  0
   -6.6420    6.9813   10.0016 C   0  0  0  0  0  0  0  0  0  0  0  0
   -7.1136    5.7019    9.4023 N   0  0  0  0  0  0  0  0  0  0  0  0
   -0.5360    4.3713   16.6649 C   0  0  0  0  0  0  0  0  0  0  0  0
    5.7423    2.9192   16.3469 N   0  0  0  0  0  0  0  0  0  0  0  0
    0.2568    3.9015   15.5907 C   0  0  0  0  0  0  0  0  0  0  0  0
   -0.3472    3.6159   14.3372 C   0  0  0  0  0  0  0  0  0  0  0  0
   -1.7451    3.8034   14.1570 C   0  0  0  0  0  0  0  0  0  0  0  0
   -2.5453    4.2617   15.2464 C   0  0  0  0  0  0  0  0  0  0  0  0
   -1.9348    4.5489   16.4979 C   0  0  0  0  0  0  0  0  0  0  0  0
    5.6272    1.5599   16.7168 C   0  0  0  0  0  0  0  0  0  0  0  0
    4.2733    1.1545   16.7364 C   0  0  0  0  0  0  0  0  0  0  0  0
    2.1328    2.4541   16.1948 C   0  0  0  0  0  0  0  0  0  0  0  0
    1.6342    3.7177   15.7763 C   0  0  0  0  0  0  0  0  0  0  0  0
    2.5351    4.7922   15.5397 C   0  0  0  0  0  0  0  0  0  0  0  0
    3.9319    4.6019   15.7193 C   0  0  0  0  0  0  0  0  0  0  0  0
    4.4317    3.3256   16.1270 C   0  0  0  0  0  0  0  0  0  0  0  0
    3.5418    2.2615   16.3621 C   0  0  0  0  0  0  0  0  0  0  0  0
    6.5611    3.4517   16.2574 H   0  0  0  0  0  0  0  0  0  0  0  0
   -8.3308    4.5040   17.1460 H   0  0  0  0  0  0  0  0  0  0  0  0
   -8.2997    4.6642   15.4727 H   0  0  0  0  0  0  0  0  0  0  0  0
   -2.8361    5.4999   12.8403 H   0  0  0  0  0  0  0  0  0  0  0  0
   -8.1255    5.6015    9.5672 H   0  0  0  0  0  0  0  0  0  0  0  0
  1  6  1  0
  1 32  1  0
  1 33  1  0
  2  4  1  0
  2  6  1  0
  3  7  1  0
  3 20  1  0
  4  5  1  0
  5 21  1  0
  7  8  1  0
  7 34  1  0
  8  9  1  0
  9 10  1  0
 10 11  1  0
 10 12  1  0
 11 13  1  0
 12 14  1  0
 13 15  1  0
 14 15  1  0
 15 35  1  0
 16 18  2  0
 16 22  1  0
 17 23  1  0
 17 29  1  0
 17 31  1  0
 18 19  1  0
 18 26  1  0
 19 20  2  0
 20 21  1  0
 21 22  2  0
 23 24  2  0
 24 30  1  0
 25 26  2  0
 25 30  1  0
 26 27  1  0
 27 28  2  0
 28 29  1  0
 29 30  2  0
M  END
>  <CHROM.0>  (3) 
53.46335500,-87.32985919,-54.19332954

>  <CHROM.1>  (3) 
-173.77002604,-63.85660789,179.38332910,116.31043965,-116.24353079,173.29340802
67.61470515,168.47001078,-32.82973854,-66.07612762,91.62308179,-1.84224626
4.20837064,13.90831016,2.63483159,0.06312896,-1.22531666

>  <Name>  (3) 
1uts_h

>  <RI>  (3) 
3.0543e+07

>  <Rbt.Current_Directory>  (3) 
/home/jta30/NA_complexes/1uts

>  <Rbt.Executable>  (3) 
rbdock ($Id: //depot/dev/client3/rdock/2013.1/src/exe/rbdock.cxx#4 $)

>  <Rbt.Library>  (3) 
libRbt.so (2013.1, Build901 2013/11/27)

>  <Rbt.Parameter_File>  (3) 
/software/dev_tools/swtree/cs400_centos7.2_pe2016-08/rdock/2013.1/centos7.2_conda/build/data/scripts/dock.prm

>  <Rbt.Receptor>  (3) 
1uts.prm

>  <SCORE>  (3) 
-21.3411

>  <SCORE.INTER>  (3) 
-25.0073

>  <SCORE.INTER.CONST>  (3) 
1

>  <SCORE.INTER.POLAR>  (3) 
-3.54449

>  <SCORE.INTER.REPUL>  (3) 
0.373774

>  <SCORE.INTER.ROT>  (3) 
11

>  <SCORE.INTER.VDW>  (3) 
-31.2249

>  <SCORE.INTER.norm>  (3) 
-0.833577

>  <SCORE.INTRA>  (3) 
-1.28094

>  <SCORE.INTRA.DIHEDRAL>  (3) 
-3.27769

>  <SCORE.INTRA.DIHEDRAL.0>  (3) 
14.7121

>  <SCORE.INTRA.POLAR>  (3) 
0

>  <SCORE.INTRA.POLAR.0>  (3) 
0

>  <SCORE.INTRA.REPUL>  (3) 
0.0398135

>  <SCORE.INTRA.REPUL.0>  (3) 
0

>  <SCORE.INTRA.VDW>  (3) 
0.158836

>  <SCORE.INTRA.VDW.0>  (3) 
-0.649219

>  <SCORE.INTRA.norm>  (3) 
-0.0426981

>  <SCORE.RESTR>  (3) 
0.264511

>  <SCORE.RESTR.CAVITY>  (3) 
0.264511

>  <SCORE.RESTR.norm>  (3) 
0.00881703

>  <SCORE.SYSTEM>  (3) 
4.68259

>  <SCORE.SYSTEM.CONST>  (3) 
0

>  <SCORE.SYSTEM.DIHEDRAL>  (3) 
3.64651

>  <SCORE.SYSTEM.POLAR>  (3) 
-0.89816

>  <SCORE.SYSTEM.REPUL>  (3) 
0.881107

>  <SCORE.SYSTEM.VDW>  (3) 
1.50754

>  <SCORE.SYSTEM.norm>  (3) 
0.156086

>  <SCORE.heavy>  (3) 
30

>  <SCORE.norm>  (3) 
-0.711371

>  <pdb_header>  (3) 
CRYST1    1.000    1.000    1.000  90.00  90.00  90.00 P 1           1

>  <Predicted_Rank>  (3) 
4.0

$$$$
1uts_h
     RDKit          3D

 35 38  0  0  0  0  0  0  0  0999 V2000
   -6.3400    1.5851   14.0659 N   0  0  0  0  0  0  0  0  0  0  0  0
   -5.9048    3.8369   14.9477 C   0  0  0  0  0  0  0  0  0  0  0  0
   -2.1114    3.5543   12.9005 C   0  0  0  0  0  0  0  0  0  0  0  0
   -4.4796    3.5230   15.4119 C   0  0  0  0  0  0  0  0  0  0  0  0
   -3.6377    4.6590   15.1658 O   0  0  0  0  0  0  0  0  0  0  0  0
   -6.7712    2.5822   15.0716 C   0  0  0  0  0  0  0  0  0  0  0  0
   -2.9157    4.7333   12.5065 N   0  0  0  0  0  0  0  0  0  0  0  0
   -2.1440    5.5687   11.5486 C   0  0  0  0  0  0  0  0  0  0  0  0
   -2.8381    5.5664   10.1835 C   0  0  0  0  0  0  0  0  0  0  0  0
   -4.3029    5.6590   10.3755 N   0  0  0  0  0  0  0  0  0  0  0  0
   -4.8904    4.2885   10.3502 C   0  0  0  0  0  0  0  0  0  0  0  0
   -4.8912    6.4971    9.2928 C   0  0  0  0  0  0  0  0  0  0  0  0
   -6.4124    4.3810   10.5455 C   0  0  0  0  0  0  0  0  0  0  0  0
   -6.4158    6.5873    9.4852 C   0  0  0  0  0  0  0  0  0  0  0  0
   -7.0015    5.2181    9.4622 N   0  0  0  0  0  0  0  0  0  0  0  0
   -0.2994    4.1493   16.8473 C   0  0  0  0  0  0  0  0  0  0  0  0
    5.8775    2.4059   16.7346 N   0  0  0  0  0  0  0  0  0  0  0  0
    0.4635    3.5989   15.7897 C   0  0  0  0  0  0  0  0  0  0  0  0
   -0.1300    3.4084   14.5134 C   0  0  0  0  0  0  0  0  0  0  0  0
   -1.4871    3.7715   14.2937 C   0  0  0  0  0  0  0  0  0  0  0  0
   -2.2592    4.3112   15.3660 C   0  0  0  0  0  0  0  0  0  0  0  0
   -1.6589    4.5025   16.6406 C   0  0  0  0  0  0  0  0  0  0  0  0
    6.3544    3.7363   16.7226 C   0  0  0  0  0  0  0  0  0  0  0  0
    5.3039    4.6474   16.4697 C   0  0  0  0  0  0  0  0  0  0  0  0
    2.8024    4.2476   16.0868 C   0  0  0  0  0  0  0  0  0  0  0  0
    1.8005    3.2419   16.0142 C   0  0  0  0  0  0  0  0  0  0  0  0
    2.1557    1.8745   16.1766 C   0  0  0  0  0  0  0  0  0  0  0  0
    3.5099    1.5146   16.4134 C   0  0  0  0  0  0  0  0  0  0  0  0
    4.5134    2.5298   16.4997 C   0  0  0  0  0  0  0  0  0  0  0  0
    4.1640    3.8831   16.3387 C   0  0  0  0  0  0  0  0  0  0  0  0
    6.3908    1.5835   16.8834 H   0  0  0  0  0  0  0  0  0  0  0  0
   -6.7256    0.6619   14.3102 H   0  0  0  0  0  0  0  0  0  0  0  0
   -6.6839    1.8647   13.1362 H   0  0  0  0  0  0  0  0  0  0  0  0
   -3.1435    5.2883   13.3443 H   0  0  0  0  0  0  0  0  0  0  0  0
   -8.0205    5.2816    9.5992 H   0  0  0  0  0  0  0  0  0  0  0  0
  1  6  1  0
  1 32  1  0
  1 33  1  0
  2  4  1  0
  2  6  1  0
  3  7  1  0
  3 20  1  0
  4  5  1  0
  5 21  1  0
  7  8  1  0
  7 34  1  0
  8  9  1  0
  9 10  1  0
 10 11  1  0
 10 12  1  0
 11 13  1  0
 12 14  1  0
 13 15  1  0
 14 15  1  0
 15 35  1  0
 16 18  2  0
 16 22  1  0
 17 23  1  0
 17 29  1  0
 17 31  1  0
 18 19  1  0
 18 26  1  0
 19 20  2  0
 20 21  1  0
 21 22  2  0
 23 24  2  0
 24 30  1  0
 25 26  2  0
 25 30  1  0
 26 27  1  0
 27 28  2  0
 28 29  1  0
 29 30  2  0
M  END
>  <CHROM.0>  (4) 
-174.04515404,-81.61583878,-51.23705753

>  <CHROM.1>  (4) 
164.21798835,174.10151455,-69.28931449,101.46630586,-136.45835767,-169.65034566
87.94249503,114.56059818,40.52609383,-95.49255086,-76.16214949,-1.59301640
4.02527845,13.93502429,2.63226934,-0.09906820,-1.09586729

>  <Name>  (4) 
1uts_h

>  <RI>  (4) 
3.0543e+07

>  <Rbt.Current_Directory>  (4) 
/home/jta30/NA_complexes/1uts

>  <Rbt.Executable>  (4) 
rbdock ($Id: //depot/dev/client3/rdock/2013.1/src/exe/rbdock.cxx#4 $)

>  <Rbt.Library>  (4) 
libRbt.so (2013.1, Build901 2013/11/27)

>  <Rbt.Parameter_File>  (4) 
/software/dev_tools/swtree/cs400_centos7.2_pe2016-08/rdock/2013.1/centos7.2_conda/build/data/scripts/dock.prm

>  <Rbt.Receptor>  (4) 
1uts.prm

>  <SCORE>  (4) 
-21.0277

>  <SCORE.INTER>  (4) 
-21.867

>  <SCORE.INTER.CONST>  (4) 
1

>  <SCORE.INTER.POLAR>  (4) 
-3.39726

>  <SCORE.INTER.REPUL>  (4) 
0.316481

>  <SCORE.INTER.ROT>  (4) 
11

>  <SCORE.INTER.VDW>  (4) 
-28.2987

>  <SCORE.INTER.norm>  (4) 
-0.7289

>  <SCORE.INTRA>  (4) 
-4.20721

>  <SCORE.INTRA.DIHEDRAL>  (4) 
-0.209334

>  <SCORE.INTRA.DIHEDRAL.0>  (4) 
14.7121

>  <SCORE.INTRA.POLAR>  (4) 
-0.536187

>  <SCORE.INTRA.POLAR.0>  (4) 
0

>  <SCORE.INTRA.REPUL>  (4) 
0

>  <SCORE.INTRA.REPUL.0>  (4) 
0

>  <SCORE.INTRA.VDW>  (4) 
-2.2795

>  <SCORE.INTRA.VDW.0>  (4) 
-0.649219

>  <SCORE.INTRA.norm>  (4) 
-0.14024

>  <SCORE.RESTR>  (4) 
0.109173

>  <SCORE.RESTR.CAVITY>  (4) 
0.109173

>  <SCORE.RESTR.norm>  (4) 
0.0036391

>  <SCORE.SYSTEM>  (4) 
4.9373

>  <SCORE.SYSTEM.CONST>  (4) 
0

>  <SCORE.SYSTEM.DIHEDRAL>  (4) 
2.80486

>  <SCORE.SYSTEM.POLAR>  (4) 
-0.955822

>  <SCORE.SYSTEM.REPUL>  (4) 
0.795436

>  <SCORE.SYSTEM.VDW>  (4) 
2.80749

>  <SCORE.SYSTEM.norm>  (4) 
0.164577

>  <SCORE.heavy>  (4) 
30

>  <SCORE.norm>  (4) 
-0.700924

>  <pdb_header>  (4) 
CRYST1    1.000    1.000    1.000  90.00  90.00  90.00 P 1           1

>  <Predicted_Rank>  (4) 
5.0

$$$$
1uts_h
     RDKit          3D

 35 38  0  0  0  0  0  0  0  0999 V2000
    5.3842    3.8116   16.8328 N   0  0  0  0  0  0  0  0  0  0  0  0
    4.1373    4.8873   18.6562 C   0  0  0  0  0  0  0  0  0  0  0  0
    1.8068    1.2496   16.1110 C   0  0  0  0  0  0  0  0  0  0  0  0
    2.7265    4.9388   18.0626 C   0  0  0  0  0  0  0  0  0  0  0  0
    2.2605    3.6022   17.8258 O   0  0  0  0  0  0  0  0  0  0  0  0
    5.1679    5.0915   17.5443 C   0  0  0  0  0  0  0  0  0  0  0  0
    3.1832    1.6289   16.5030 N   0  0  0  0  0  0  0  0  0  0  0  0
    3.9331    0.4190   16.9327 C   0  0  0  0  0  0  0  0  0  0  0  0
    5.4362    0.7124   16.9277 C   0  0  0  0  0  0  0  0  0  0  0  0
    6.1693   -0.4632   17.4487 N   0  0  0  0  0  0  0  0  0  0  0  0
    7.3531    0.0006   18.2282 C   0  0  0  0  0  0  0  0  0  0  0  0
    6.6006   -1.3214   16.3093 C   0  0  0  0  0  0  0  0  0  0  0  0
    8.1193   -1.2180   18.7678 C   0  0  0  0  0  0  0  0  0  0  0  0
    7.3713   -2.5401   16.8482 C   0  0  0  0  0  0  0  0  0  0  0  0
    8.5520   -2.0761   17.6285 N   0  0  0  0  0  0  0  0  0  0  0  0
   -0.7964    4.7726   15.9505 C   0  0  0  0  0  0  0  0  0  0  0  0
   -5.5029    3.8605   11.6827 N   0  0  0  0  0  0  0  0  0  0  0  0
   -1.0381    3.6699   15.0968 C   0  0  0  0  0  0  0  0  0  0  0  0
   -0.1904    2.5316   15.1536 C   0  0  0  0  0  0  0  0  0  0  0  0
    0.8984    2.4949   16.0675 C   0  0  0  0  0  0  0  0  0  0  0  0
    1.1500    3.6147   16.9160 C   0  0  0  0  0  0  0  0  0  0  0  0
    0.2963    4.7502   16.8568 C   0  0  0  0  0  0  0  0  0  0  0  0
   -6.4897    3.6546   12.6735 C   0  0  0  0  0  0  0  0  0  0  0  0
   -5.8998    3.4882   13.9471 C   0  0  0  0  0  0  0  0  0  0  0  0
   -3.4420    3.5383   14.6688 C   0  0  0  0  0  0  0  0  0  0  0  0
   -2.1126    3.7138   14.1973 C   0  0  0  0  0  0  0  0  0  0  0  0
   -1.8753    3.9409   12.8137 C   0  0  0  0  0  0  0  0  0  0  0  0
   -2.9661    3.9945   11.9044 C   0  0  0  0  0  0  0  0  0  0  0  0
   -4.3034    3.8314   12.3838 C   0  0  0  0  0  0  0  0  0  0  0  0
   -4.5401    3.6061   13.7523 C   0  0  0  0  0  0  0  0  0  0  0  0
   -5.6353    4.0004   10.7210 H   0  0  0  0  0  0  0  0  0  0  0  0
    5.8924    3.1590   17.4464 H   0  0  0  0  0  0  0  0  0  0  0  0
    4.4740    3.4028   16.5774 H   0  0  0  0  0  0  0  0  0  0  0  0
    3.1443    2.3058   17.2790 H   0  0  0  0  0  0  0  0  0  0  0  0
    9.0608   -2.8937   17.9943 H   0  0  0  0  0  0  0  0  0  0  0  0
  1  6  1  0
  1 32  1  0
  1 33  1  0
  2  4  1  0
  2  6  1  0
  3  7  1  0
  3 20  1  0
  4  5  1  0
  5 21  1  0
  7  8  1  0
  7 34  1  0
  8  9  1  0
  9 10  1  0
 10 11  1  0
 10 12  1  0
 11 13  1  0
 12 14  1  0
 13 15  1  0
 14 15  1  0
 15 35  1  0
 16 18  2  0
 16 22  1  0
 17 23  1  0
 17 29  1  0
 17 31  1  0
 18 19  1  0
 18 26  1  0
 19 20  2  0
 20 21  1  0
 21 22  2  0
 23 24  2  0
 24 30  1  0
 25 26  2  0
 25 30  1  0
 26 27  1  0
 27 28  2  0
 28 29  1  0
 29 30  2  0
M  END
>  <CHROM.0>  (5) 
-37.73589776,27.76095703,-59.59877419

>  <CHROM.1>  (5) 
-70.54712509,97.24953682,-81.34454738,163.23092415,149.59113886,-162.41010132
151.41459661,162.86394702,175.96428267,-144.77107854,-75.31588067,1.66424196
2.38697690,15.93176001,-0.15081989,-0.47117614,0.41938728

>  <Name>  (5) 
1uts_h

>  <RI>  (5) 
3.0543e+07

>  <Rbt.Current_Directory>  (5) 
/home/jta30/NA_complexes/1uts

>  <Rbt.Executable>  (5) 
rbdock ($Id: //depot/dev/client3/rdock/2013.1/src/exe/rbdock.cxx#4 $)

>  <Rbt.Library>  (5) 
libRbt.so (2013.1, Build901 2013/11/27)

>  <Rbt.Parameter_File>  (5) 
/software/dev_tools/swtree/cs400_centos7.2_pe2016-08/rdock/2013.1/centos7.2_conda/build/data/scripts/dock.prm

>  <Rbt.Receptor>  (5) 
1uts.prm

>  <SCORE>  (5) 
-7.53014

>  <SCORE.INTER>  (5) 
-7.46458

>  <SCORE.INTER.CONST>  (5) 
1

>  <SCORE.INTER.POLAR>  (5) 
0

>  <SCORE.INTER.REPUL>  (5) 
0

>  <SCORE.INTER.ROT>  (5) 
11

>  <SCORE.INTER.VDW>  (5) 
-23.8646

>  <SCORE.INTER.norm>  (5) 
-0.248819

>  <SCORE.INTRA>  (5) 
-5.37482

>  <SCORE.INTRA.DIHEDRAL>  (5) 
0.798712

>  <SCORE.INTRA.DIHEDRAL.0>  (5) 
14.7121

>  <SCORE.INTRA.POLAR>  (5) 
-1.78761

>  <SCORE.INTRA.POLAR.0>  (5) 
0

>  <SCORE.INTRA.REPUL>  (5) 
0

>  <SCORE.INTRA.REPUL.0>  (5) 
0

>  <SCORE.INTRA.VDW>  (5) 
0.30369

>  <SCORE.INTRA.VDW.0>  (5) 
-0.649219

>  <SCORE.INTRA.norm>  (5) 
-0.179161

>  <SCORE.RESTR>  (5) 
0.00509498

>  <SCORE.RESTR.CAVITY>  (5) 
0.00509498

>  <SCORE.RESTR.norm>  (5) 
0.000169833

>  <SCORE.SYSTEM>  (5) 
5.30416

>  <SCORE.SYSTEM.CONST>  (5) 
0

>  <SCORE.SYSTEM.DIHEDRAL>  (5) 
6.32931

>  <SCORE.SYSTEM.POLAR>  (5) 
-0.157902

>  <SCORE.SYSTEM.REPUL>  (5) 
0.458811

>  <SCORE.SYSTEM.VDW>  (5) 
0.382326

>  <SCORE.SYSTEM.norm>  (5) 
0.176805

>  <SCORE.heavy>  (5) 
30

>  <SCORE.norm>  (5) 
-0.251005

>  <pdb_header>  (5) 
CRYST1    1.000    1.000    1.000  90.00  90.00  90.00 P 1           1

>  <Predicted_Rank>  (5) 
6.0

$$$$
1uts_h
     RDKit          3D

 35 38  0  0  0  0  0  0  0  0999 V2000
    2.0718    5.4450   21.6392 N   0  0  0  0  0  0  0  0  0  0  0  0
   -0.0100    5.9342   20.4292 C   0  0  0  0  0  0  0  0  0  0  0  0
    1.1241    4.3989   16.3873 C   0  0  0  0  0  0  0  0  0  0  0  0
   -0.6778    5.9178   19.0512 C   0  0  0  0  0  0  0  0  0  0  0  0
   -0.8113    4.5610   18.6029 O   0  0  0  0  0  0  0  0  0  0  0  0
    1.4152    5.3906   20.3135 C   0  0  0  0  0  0  0  0  0  0  0  0
    1.7614    3.4736   15.4232 N   0  0  0  0  0  0  0  0  0  0  0  0
    2.5277    2.4332   16.1590 C   0  0  0  0  0  0  0  0  0  0  0  0
    3.8548    3.0185   16.6508 C   0  0  0  0  0  0  0  0  0  0  0  0
    4.6024    1.9832   17.3993 N   0  0  0  0  0  0  0  0  0  0  0  0
    5.2559    2.6084   18.5850 C   0  0  0  0  0  0  0  0  0  0  0  0
    5.6247    1.3689   16.5056 C   0  0  0  0  0  0  0  0  0  0  0  0
    6.0367    1.5367   19.3628 C   0  0  0  0  0  0  0  0  0  0  0  0
    6.4097    0.2982   17.2846 C   0  0  0  0  0  0  0  0  0  0  0  0
    7.0601    0.9229   18.4699 N   0  0  0  0  0  0  0  0  0  0  0  0
   -3.1997    4.5505   15.6828 C   0  0  0  0  0  0  0  0  0  0  0  0
   -4.1043    4.5619    9.2631 N   0  0  0  0  0  0  0  0  0  0  0  0
   -2.3023    4.4912   14.5899 C   0  0  0  0  0  0  0  0  0  0  0  0
   -0.9024    4.4427   14.8252 C   0  0  0  0  0  0  0  0  0  0  0  0
   -0.3995    4.4505   16.1553 C   0  0  0  0  0  0  0  0  0  0  0  0
   -1.3055    4.5269   17.2555 C   0  0  0  0  0  0  0  0  0  0  0  0
   -2.7060    4.5720   17.0139 C   0  0  0  0  0  0  0  0  0  0  0  0
   -3.0579    5.3519    8.7349 C   0  0  0  0  0  0  0  0  0  0  0  0
   -2.1487    5.7294    9.7490 C   0  0  0  0  0  0  0  0  0  0  0  0
   -2.1186    5.1854   12.2524 C   0  0  0  0  0  0  0  0  0  0  0  0
   -2.8055    4.4854   13.2813 C   0  0  0  0  0  0  0  0  0  0  0  0
   -3.9992    3.7739   12.9797 C   0  0  0  0  0  0  0  0  0  0  0  0
   -4.5032    3.7611   11.6510 C   0  0  0  0  0  0  0  0  0  0  0  0
   -3.8024    4.4548   10.6153 C   0  0  0  0  0  0  0  0  0  0  0  0
   -2.6215    5.1597   10.9120 C   0  0  0  0  0  0  0  0  0  0  0  0
   -4.8652    4.1714    8.7829 H   0  0  0  0  0  0  0  0  0  0  0  0
    1.6339    4.7570   22.2680 H   0  0  0  0  0  0  0  0  0  0  0  0
    3.0728    5.2255   21.5356 H   0  0  0  0  0  0  0  0  0  0  0  0
    2.3977    4.0029   14.8094 H   0  0  0  0  0  0  0  0  0  0  0  0
    7.5778    0.2023   18.9932 H   0  0  0  0  0  0  0  0  0  0  0  0
  1  6  1  0
  1 32  1  0
  1 33  1  0
  2  4  1  0
  2  6  1  0
  3  7  1  0
  3 20  1  0
  4  5  1  0
  5 21  1  0
  7  8  1  0
  7 34  1  0
  8  9  1  0
  9 10  1  0
 10 11  1  0
 10 12  1  0
 11 13  1  0
 12 14  1  0
 13 15  1  0
 14 15  1  0
 15 35  1  0
 16 18  2  0
 16 22  1  0
 17 23  1  0
 17 29  1  0
 17 31  1  0
 18 19  1  0
 18 26  1  0
 19 20  2  0
 20 21  1  0
 21 22  2  0
 23 24  2  0
 24 30  1  0
 25 26  2  0
 25 30  1  0
 26 27  1  0
 27 28  2  0
 28 29  1  0
 29 30  2  0
M  END
>  <CHROM.0>  (6) 
58.07153946,-86.94074214,-168.69738000

>  <CHROM.1>  (6) 
69.19225898,64.41778630,178.33689525,-123.70504900,-39.45768771,-173.95890761
93.99202063,-77.69217460,179.16348825,-140.35310195,142.54332756,0.42132142
3.91118088,15.77358795,0.64023200,-0.45916380,1.32684819

>  <Name>  (6) 
1uts_h

>  <RI>  (6) 
3.0543e+07

>  <Rbt.Current_Directory>  (6) 
/home/jta30/NA_complexes/1uts

>  <Rbt.Executable>  (6) 
rbdock ($Id: //depot/dev/client3/rdock/2013.1/src/exe/rbdock.cxx#4 $)

>  <Rbt.Library>  (6) 
libRbt.so (2013.1, Build901 2013/11/27)

>  <Rbt.Parameter_File>  (6) 
/software/dev_tools/swtree/cs400_centos7.2_pe2016-08/rdock/2013.1/centos7.2_conda/build/data/scripts/dock.prm

>  <Rbt.Receptor>  (6) 
1uts.prm

>  <SCORE>  (6) 
-2.54752

>  <SCORE.INTER>  (6) 
-7.53035

>  <SCORE.INTER.CONST>  (6) 
1

>  <SCORE.INTER.POLAR>  (6) 
0

>  <SCORE.INTER.REPUL>  (6) 
0

>  <SCORE.INTER.ROT>  (6) 
11

>  <SCORE.INTER.VDW>  (6) 
-23.9303

>  <SCORE.INTER.norm>  (6) 
-0.251012

>  <SCORE.INTRA>  (6) 
-2.37383

>  <SCORE.INTRA.DIHEDRAL>  (6) 
-3.67442

>  <SCORE.INTRA.DIHEDRAL.0>  (6) 
14.7121

>  <SCORE.INTRA.POLAR>  (6) 
0

>  <SCORE.INTRA.POLAR.0>  (6) 
0

>  <SCORE.INTRA.REPUL>  (6) 
0

>  <SCORE.INTRA.REPUL.0>  (6) 
0

>  <SCORE.INTRA.VDW>  (6) 
-0.536624

>  <SCORE.INTRA.VDW.0>  (6) 
-0.649219

>  <SCORE.INTRA.norm>  (6) 
-0.0791278

>  <SCORE.RESTR>  (6) 
0.000140847

>  <SCORE.RESTR.CAVITY>  (6) 
0.000140847

>  <SCORE.RESTR.norm>  (6) 
4.69489e-06

>  <SCORE.SYSTEM>  (6) 
7.35652

>  <SCORE.SYSTEM.CONST>  (6) 
0

>  <SCORE.SYSTEM.DIHEDRAL>  (6) 
3.82187

>  <SCORE.SYSTEM.POLAR>  (6) 
-0.887595

>  <SCORE.SYSTEM.REPUL>  (6) 
1.49585

>  <SCORE.SYSTEM.VDW>  (6) 
0.984165

>  <SCORE.SYSTEM.norm>  (6) 
0.245217

>  <SCORE.heavy>  (6) 
30

>  <SCORE.norm>  (6) 
-0.0849173

>  <pdb_header>  (6) 
CRYST1    1.000    1.000    1.000  90.00  90.00  90.00 P 1           1

>  <Predicted_Rank>  (6) 
7.0

$$$$
1uts_h
     RDKit          3D

 35 38  0  0  0  0  0  0  0  0999 V2000
   -8.0353    3.4329   16.6946 N   0  0  0  0  0  0  0  0  0  0  0  0
   -5.7866    4.1288   15.9902 C   0  0  0  0  0  0  0  0  0  0  0  0
   -2.1277    3.4611   13.0742 C   0  0  0  0  0  0  0  0  0  0  0  0
   -4.2908    3.8563   16.1737 C   0  0  0  0  0  0  0  0  0  0  0  0
   -3.5389    4.7358   15.3247 O   0  0  0  0  0  0  0  0  0  0  0  0
   -6.5888    3.2447   16.9467 C   0  0  0  0  0  0  0  0  0  0  0  0
   -2.9648    4.5810   12.5873 N   0  0  0  0  0  0  0  0  0  0  0  0
   -2.1706    5.4361   11.6658 C   0  0  0  0  0  0  0  0  0  0  0  0
   -2.8182    5.4423   10.2779 C   0  0  0  0  0  0  0  0  0  0  0  0
   -4.2852    5.5789   10.4194 N   0  0  0  0  0  0  0  0  0  0  0  0
   -4.9025    4.2227   10.4789 C   0  0  0  0  0  0  0  0  0  0  0  0
   -4.8242    6.3453    9.2605 C   0  0  0  0  0  0  0  0  0  0  0  0
   -6.4269    4.3607   10.6220 C   0  0  0  0  0  0  0  0  0  0  0  0
   -6.3511    6.4808    9.4009 C   0  0  0  0  0  0  0  0  0  0  0  0
   -6.9667    5.1260    9.4626 N   0  0  0  0  0  0  0  0  0  0  0  0
   -0.0650    4.5543   16.7843 C   0  0  0  0  0  0  0  0  0  0  0  0
    6.0709    2.5912   16.3746 N   0  0  0  0  0  0  0  0  0  0  0  0
    0.6457    3.9270   15.7333 C   0  0  0  0  0  0  0  0  0  0  0  0
   -0.0289    3.5749   14.5340 C   0  0  0  0  0  0  0  0  0  0  0  0
   -1.4152    3.8535   14.3843 C   0  0  0  0  0  0  0  0  0  0  0  0
   -2.1335    4.4714   15.4517 C   0  0  0  0  0  0  0  0  0  0  0  0
   -1.4523    4.8243   16.6488 C   0  0  0  0  0  0  0  0  0  0  0  0
    5.8745    1.2509   16.7780 C   0  0  0  0  0  0  0  0  0  0  0  0
    4.4974    0.9387   16.8405 C   0  0  0  0  0  0  0  0  0  0  0  0
    2.4355    2.3687   16.3232 C   0  0  0  0  0  0  0  0  0  0  0  0
    2.0121    3.6541   15.8887 C   0  0  0  0  0  0  0  0  0  0  0  0
    2.9767    4.6600   15.6054 C   0  0  0  0  0  0  0  0  0  0  0  0
    4.3618    4.3793   15.7545 C   0  0  0  0  0  0  0  0  0  0  0  0
    4.7852    3.0808   16.1784 C   0  0  0  0  0  0  0  0  0  0  0  0
    3.8323    2.0846   16.4596 C   0  0  0  0  0  0  0  0  0  0  0  0
    6.9210    3.0650   16.2528 H   0  0  0  0  0  0  0  0  0  0  0  0
   -8.2664    4.4349   16.7511 H   0  0  0  0  0  0  0  0  0  0  0  0
   -8.2686    3.0802   15.7555 H   0  0  0  0  0  0  0  0  0  0  0  0
   -3.2866    5.1422   13.3892 H   0  0  0  0  0  0  0  0  0  0  0  0
   -7.9874    5.2203    9.5645 H   0  0  0  0  0  0  0  0  0  0  0  0
  1  6  1  0
  1 32  1  0
  1 33  1  0
  2  4  1  0
  2  6  1  0
  3  7  1  0
  3 20  1  0
  4  5  1  0
  5 21  1  0
  7  8  1  0
  7 34  1  0
  8  9  1  0
  9 10  1  0
 10 11  1  0
 10 12  1  0
 11 13  1  0
 12 14  1  0
 13 15  1  0
 14 15  1  0
 15 35  1  0
 16 18  2  0
 16 22  1  0
 17 23  1  0
 17 29  1  0
 17 31  1  0
 18 19  1  0
 18 26  1  0
 19 20  2  0
 20 21  1  0
 21 22  2  0
 23 24  2  0
 24 30  1  0
 25 26  2  0
 25 30  1  0
 26 27  1  0
 27 28  2  0
 28 29  1  0
 29 30  2  0
M  END
>  <CHROM.0>  (7) 
-41.86371587,161.34971008,52.13724863

>  <CHROM.1>  (7) 
-54.10942986,-177.05291199,-175.64720946,91.04737238,-133.58900644,-178.33993483
109.11263474,118.75524655,43.09551349,-91.62925880,95.84490712,-1.59547646
4.07094310,14.15806637,2.66322850,0.08473555,-1.29137453

>  <Name>  (7) 
1uts_h

>  <RI>  (7) 
3.0543e+07

>  <Rbt.Current_Directory>  (7) 
/home/jta30/NA_complexes/1uts

>  <Rbt.Executable>  (7) 
rbdock ($Id: //depot/dev/client3/rdock/2013.1/src/exe/rbdock.cxx#4 $)

>  <Rbt.Library>  (7) 
libRbt.so (2013.1, Build901 2013/11/27)

>  <Rbt.Parameter_File>  (7) 
/software/dev_tools/swtree/cs400_centos7.2_pe2016-08/rdock/2013.1/centos7.2_conda/build/data/scripts/dock.prm

>  <Rbt.Receptor>  (7) 
1uts.prm

>  <SCORE>  (7) 
-20.2598

>  <SCORE.INTER>  (7) 
-19.6133

>  <SCORE.INTER.CONST>  (7) 
1

>  <SCORE.INTER.POLAR>  (7) 
-2.68652

>  <SCORE.INTER.REPUL>  (7) 
0.325506

>  <SCORE.INTER.ROT>  (7) 
11

>  <SCORE.INTER.VDW>  (7) 
-28.5067

>  <SCORE.INTER.norm>  (7) 
-0.653777

>  <SCORE.INTRA>  (7) 
-4.9797

>  <SCORE.INTRA.DIHEDRAL>  (7) 
-2.4905

>  <SCORE.INTRA.DIHEDRAL.0>  (7) 
14.7121

>  <SCORE.INTRA.POLAR>  (7) 
-0.663272

>  <SCORE.INTRA.POLAR.0>  (7) 
0

>  <SCORE.INTRA.REPUL>  (7) 
0

>  <SCORE.INTRA.REPUL.0>  (7) 
0

>  <SCORE.INTRA.VDW>  (7) 
-1.47933

>  <SCORE.INTRA.VDW.0>  (7) 
-0.649219

>  <SCORE.INTRA.norm>  (7) 
-0.16599

>  <SCORE.RESTR>  (7) 
0.0653913

>  <SCORE.RESTR.CAVITY>  (7) 
0.0653913

>  <SCORE.RESTR.norm>  (7) 
0.00217971

>  <SCORE.SYSTEM>  (7) 
4.26779

>  <SCORE.SYSTEM.CONST>  (7) 
0

>  <SCORE.SYSTEM.DIHEDRAL>  (7) 
3.56732

>  <SCORE.SYSTEM.POLAR>  (7) 
-0.0503651

>  <SCORE.SYSTEM.REPUL>  (7) 
0.482887

>  <SCORE.SYSTEM.VDW>  (7) 
0.240939

>  <SCORE.SYSTEM.norm>  (7) 
0.14226

>  <SCORE.heavy>  (7) 
30

>  <SCORE.norm>  (7) 
-0.675328

>  <pdb_header>  (7) 
CRYST1    1.000    1.000    1.000  90.00  90.00  90.00 P 1           1

>  <Predicted_Rank>  (7) 
8.0

$$$$
1uts_h
     RDKit          3D

 35 38  0  0  0  0  0  0  0  0999 V2000
    5.4730    1.7978   16.1929 N   0  0  0  0  0  0  0  0  0  0  0  0
    4.1586   -0.0337   17.1704 C   0  0  0  0  0  0  0  0  0  0  0  0
    2.3754    3.8486   15.6531 C   0  0  0  0  0  0  0  0  0  0  0  0
    2.9404    0.3644   16.3321 C   0  0  0  0  0  0  0  0  0  0  0  0
    2.1278    1.2820   17.0788 O   0  0  0  0  0  0  0  0  0  0  0  0
    5.0033    1.2069   17.4664 C   0  0  0  0  0  0  0  0  0  0  0  0
    2.7582    4.0770   17.0650 N   0  0  0  0  0  0  0  0  0  0  0  0
    4.0923    4.7312   17.1227 C   0  0  0  0  0  0  0  0  0  0  0  0
    4.3672    5.2219   18.5472 C   0  0  0  0  0  0  0  0  0  0  0  0
    3.4367    6.3249   18.8764 N   0  0  0  0  0  0  0  0  0  0  0  0
    4.0223    7.1534   19.9693 C   0  0  0  0  0  0  0  0  0  0  0  0
    2.1262    5.7559   19.3003 C   0  0  0  0  0  0  0  0  0  0  0  0
    3.0567    8.2980   20.3167 C   0  0  0  0  0  0  0  0  0  0  0  0
    1.1596    6.9011   19.6520 C   0  0  0  0  0  0  0  0  0  0  0  0
    1.7462    7.7295   20.7420 N   0  0  0  0  0  0  0  0  0  0  0  0
   -1.2534    1.4017   15.4101 C   0  0  0  0  0  0  0  0  0  0  0  0
   -5.4524    4.3563   11.4944 N   0  0  0  0  0  0  0  0  0  0  0  0
   -1.1813    2.6377   14.7242 C   0  0  0  0  0  0  0  0  0  0  0  0
   -0.0026    3.4258   14.8076 C   0  0  0  0  0  0  0  0  0  0  0  0
    1.1064    2.9759   15.5753 C   0  0  0  0  0  0  0  0  0  0  0  0
    1.0255    1.7370   16.2794 C   0  0  0  0  0  0  0  0  0  0  0  0
   -0.1558    0.9508   16.1898 C   0  0  0  0  0  0  0  0  0  0  0  0
   -4.7257    4.4656   10.2870 C   0  0  0  0  0  0  0  0  0  0  0  0
   -3.3660    4.1339   10.4839 C   0  0  0  0  0  0  0  0  0  0  0  0
   -2.1199    3.3760   12.5904 C   0  0  0  0  0  0  0  0  0  0  0  0
   -2.2794    3.0755   13.9704 C   0  0  0  0  0  0  0  0  0  0  0  0
   -3.5554    3.2128   14.5830 C   0  0  0  0  0  0  0  0  0  0  0  0
   -4.6696    3.6478   13.8156 C   0  0  0  0  0  0  0  0  0  0  0  0
   -4.5089    3.9361   12.4242 C   0  0  0  0  0  0  0  0  0  0  0  0
   -3.2472    3.8014   11.8166 C   0  0  0  0  0  0  0  0  0  0  0  0
   -6.4067    4.5294   11.6406 H   0  0  0  0  0  0  0  0  0  0  0  0
    4.7089    2.3375   15.7622 H   0  0  0  0  0  0  0  0  0  0  0  0
    6.2710    2.4220   16.3780 H   0  0  0  0  0  0  0  0  0  0  0  0
    2.7936    3.1744   17.5608 H   0  0  0  0  0  0  0  0  0  0  0  0
    1.1006    8.4993   20.9693 H   0  0  0  0  0  0  0  0  0  0  0  0
  1  6  1  0
  1 32  1  0
  1 33  1  0
  2  4  1  0
  2  6  1  0
  3  7  1  0
  3 20  1  0
  4  5  1  0
  5 21  1  0
  7  8  1  0
  7 34  1  0
  8  9  1  0
  9 10  1  0
 10 11  1  0
 10 12  1  0
 11 13  1  0
 12 14  1  0
 13 15  1  0
 14 15  1  0
 15 35  1  0
 16 18  2  0
 16 22  1  0
 17 23  1  0
 17 29  1  0
 17 31  1  0
 18 19  1  0
 18 26  1  0
 19 20  2  0
 20 21  1  0
 21 22  2  0
 23 24  2  0
 24 30  1  0
 25 26  2  0
 25 30  1  0
 26 27  1  0
 27 28  2  0
 28 29  1  0
 29 30  2  0
M  END
>  <CHROM.0>  (8) 
-178.86232015,64.41468964,-168.55662501

>  <CHROM.1>  (8) 
78.54937092,-61.99379234,-60.81505639,171.07607671,127.46816697,176.23507171
-96.40653391,168.69269829,-67.46927728,-157.15432123,-123.35518560,0.68512374
3.76734334,16.02494440,-0.47000236,0.57267442,-2.59124200

>  <Name>  (8) 
1uts_h

>  <RI>  (8) 
3.0543e+07

>  <Rbt.Current_Directory>  (8) 
/home/jta30/NA_complexes/1uts

>  <Rbt.Executable>  (8) 
rbdock ($Id: //depot/dev/client3/rdock/2013.1/src/exe/rbdock.cxx#4 $)

>  <Rbt.Library>  (8) 
libRbt.so (2013.1, Build901 2013/11/27)

>  <Rbt.Parameter_File>  (8) 
/software/dev_tools/swtree/cs400_centos7.2_pe2016-08/rdock/2013.1/centos7.2_conda/build/data/scripts/dock.prm

>  <Rbt.Receptor>  (8) 
1uts.prm

>  <SCORE>  (8) 
-16.7013

>  <SCORE.INTER>  (8) 
-12.5188

>  <SCORE.INTER.CONST>  (8) 
1

>  <SCORE.INTER.POLAR>  (8) 
-0.887237

>  <SCORE.INTER.REPUL>  (8) 
0

>  <SCORE.INTER.ROT>  (8) 
11

>  <SCORE.INTER.VDW>  (8) 
-25.9022

>  <SCORE.INTER.norm>  (8) 
-0.417294

>  <SCORE.INTRA>  (8) 
-7.98777

>  <SCORE.INTRA.DIHEDRAL>  (8) 
-6.72378

>  <SCORE.INTRA.DIHEDRAL.0>  (8) 
14.7121

>  <SCORE.INTRA.POLAR>  (8) 
-0.656807

>  <SCORE.INTRA.POLAR.0>  (8) 
0

>  <SCORE.INTRA.REPUL>  (8) 
0

>  <SCORE.INTRA.REPUL.0>  (8) 
0

>  <SCORE.INTRA.VDW>  (8) 
-2.39273

>  <SCORE.INTRA.VDW.0>  (8) 
-0.649219

>  <SCORE.INTRA.norm>  (8) 
-0.266259

>  <SCORE.RESTR>  (8) 
0.0306332

>  <SCORE.RESTR.CAVITY>  (8) 
0.0306332

>  <SCORE.RESTR.norm>  (8) 
0.00102111

>  <SCORE.SYSTEM>  (8) 
3.77463

>  <SCORE.SYSTEM.CONST>  (8) 
0

>  <SCORE.SYSTEM.DIHEDRAL>  (8) 
0.952779

>  <SCORE.SYSTEM.POLAR>  (8) 
-0.171836

>  <SCORE.SYSTEM.REPUL>  (8) 
1.06694

>  <SCORE.SYSTEM.VDW>  (8) 
-1.45223

>  <SCORE.SYSTEM.norm>  (8) 
0.125821

>  <SCORE.heavy>  (8) 
30

>  <SCORE.norm>  (8) 
-0.556711

>  <pdb_header>  (8) 
CRYST1    1.000    1.000    1.000  90.00  90.00  90.00 P 1           1

>  <Predicted_Rank>  (8) 
9.0

$$$$
1uts_h
     RDKit          3D

 35 38  0  0  0  0  0  0  0  0999 V2000
   -3.1065    6.1432   11.4582 N   0  0  0  0  0  0  0  0  0  0  0  0
   -3.6953    3.8448   12.0967 C   0  0  0  0  0  0  0  0  0  0  0  0
   -3.3735    4.6870   16.7446 C   0  0  0  0  0  0  0  0  0  0  0  0
   -2.7866    3.5497   13.2935 C   0  0  0  0  0  0  0  0  0  0  0  0
   -2.4478    4.7807   13.9490 O   0  0  0  0  0  0  0  0  0  0  0  0
   -2.9464    4.7187   11.0889 C   0  0  0  0  0  0  0  0  0  0  0  0
   -3.9736    3.3943   17.1456 N   0  0  0  0  0  0  0  0  0  0  0  0
   -4.9153    2.9311   16.0922 C   0  0  0  0  0  0  0  0  0  0  0  0
   -6.2280    3.7139   16.1904 C   0  0  0  0  0  0  0  0  0  0  0  0
   -7.2228    3.1255   15.2657 N   0  0  0  0  0  0  0  0  0  0  0  0
   -6.8908    3.5234   13.8674 C   0  0  0  0  0  0  0  0  0  0  0  0
   -8.5845    3.6062   15.6339 C   0  0  0  0  0  0  0  0  0  0  0  0
   -7.9243    2.9172   12.9043 C   0  0  0  0  0  0  0  0  0  0  0  0
   -9.6199    3.0028   14.6678 C   0  0  0  0  0  0  0  0  0  0  0  0
   -9.2863    3.3986   13.2712 N   0  0  0  0  0  0  0  0  0  0  0  0
    0.8430    4.1403   15.6787 C   0  0  0  0  0  0  0  0  0  0  0  0
    4.3084    3.0424   20.9784 N   0  0  0  0  0  0  0  0  0  0  0  0
    0.4419    4.1061   17.0356 C   0  0  0  0  0  0  0  0  0  0  0  0
   -0.9260    4.2844   17.3741 C   0  0  0  0  0  0  0  0  0  0  0  0
   -1.8943    4.4942   16.3541 C   0  0  0  0  0  0  0  0  0  0  0  0
   -1.4852    4.5446   14.9876 C   0  0  0  0  0  0  0  0  0  0  0  0
   -0.1150    4.3624   14.6545 C   0  0  0  0  0  0  0  0  0  0  0  0
    4.2714    1.6326   20.8839 C   0  0  0  0  0  0  0  0  0  0  0  0
    3.3222    1.2154   19.9233 C   0  0  0  0  0  0  0  0  0  0  0  0
    1.7781    2.5786   18.3997 C   0  0  0  0  0  0  0  0  0  0  0  0
    1.4025    3.9003   18.0358 C   0  0  0  0  0  0  0  0  0  0  0  0
    2.0075    5.0127   18.6829 C   0  0  0  0  0  0  0  0  0  0  0  0
    2.9878    4.8028   19.6902 C   0  0  0  0  0  0  0  0  0  0  0  0
    3.3736    3.4721   20.0442 C   0  0  0  0  0  0  0  0  0  0  0  0
    2.7757    2.3703   19.4055 C   0  0  0  0  0  0  0  0  0  0  0  0
    4.8716    3.5921   21.5638 H   0  0  0  0  0  0  0  0  0  0  0  0
   -2.9789    6.2512   12.4745 H   0  0  0  0  0  0  0  0  0  0  0  0
   -2.4015    6.7075   10.9629 H   0  0  0  0  0  0  0  0  0  0  0  0
   -4.4802    3.5128   18.0350 H   0  0  0  0  0  0  0  0  0  0  0  0
   -9.9763    2.9866   12.6268 H   0  0  0  0  0  0  0  0  0  0  0  0
  1  6  1  0
  1 32  1  0
  1 33  1  0
  2  4  1  0
  2  6  1  0
  3  7  1  0
  3 20  1  0
  4  5  1  0
  5 21  1  0
  7  8  1  0
  7 34  1  0
  8  9  1  0
  9 10  1  0
 10 11  1  0
 10 12  1  0
 11 13  1  0
 12 14  1  0
 13 15  1  0
 14 15  1  0
 15 35  1  0
 16 18  2  0
 16 22  1  0
 17 23  1  0
 17 29  1  0
 17 31  1  0
 18 19  1  0
 18 26  1  0
 19 20  2  0
 20 21  1  0
 21 22  2  0
 23 24  2  0
 24 30  1  0
 25 26  2  0
 25 30  1  0
 26 27  1  0
 27 28  2  0
 28 29  1  0
 29 30  2  0
M  END
>  <CHROM.0>  (9) 
55.79850881,-88.33006068,53.23021443

>  <CHROM.1>  (9) 
43.92244074,62.13249953,-86.35280749,-107.93864020,-74.55187696,-173.95529730
-101.65392321,-77.25827312,-172.33318854,-75.39532832,-85.90758399,-2.24720339
3.73164559,16.04559388,-2.64516992,0.14324063,1.91379785

>  <Name>  (9) 
1uts_h

>  <RI>  (9) 
3.0543e+07

>  <Rbt.Current_Directory>  (9) 
/home/jta30/NA_complexes/1uts

>  <Rbt.Executable>  (9) 
rbdock ($Id: //depot/dev/client3/rdock/2013.1/src/exe/rbdock.cxx#4 $)

>  <Rbt.Library>  (9) 
libRbt.so (2013.1, Build901 2013/11/27)

>  <Rbt.Parameter_File>  (9) 
/software/dev_tools/swtree/cs400_centos7.2_pe2016-08/rdock/2013.1/centos7.2_conda/build/data/scripts/dock.prm

>  <Rbt.Receptor>  (9) 
1uts.prm

>  <SCORE>  (9) 
-14.0741

>  <SCORE.INTER>  (9) 
-16.2415

>  <SCORE.INTER.CONST>  (9) 
1

>  <SCORE.INTER.POLAR>  (9) 
-2.46394

>  <SCORE.INTER.REPUL>  (9) 
0

>  <SCORE.INTER.ROT>  (9) 
11

>  <SCORE.INTER.VDW>  (9) 
-24.2641

>  <SCORE.INTER.norm>  (9) 
-0.541383

>  <SCORE.INTRA>  (9) 
-4.238

>  <SCORE.INTRA.DIHEDRAL>  (9) 
-2.52329

>  <SCORE.INTRA.DIHEDRAL.0>  (9) 
14.7121

>  <SCORE.INTRA.POLAR>  (9) 
-0.589848

>  <SCORE.INTRA.POLAR.0>  (9) 
0

>  <SCORE.INTRA.REPUL>  (9) 
0

>  <SCORE.INTRA.REPUL.0>  (9) 
0

>  <SCORE.INTRA.VDW>  (9) 
-0.970869

>  <SCORE.INTRA.VDW.0>  (9) 
-0.649219

>  <SCORE.INTRA.norm>  (9) 
-0.141267

>  <SCORE.RESTR>  (9) 
0.0194632

>  <SCORE.RESTR.CAVITY>  (9) 
0.0194632

>  <SCORE.RESTR.norm>  (9) 
0.000648774

>  <SCORE.SYSTEM>  (9) 
6.38597

>  <SCORE.SYSTEM.CONST>  (9) 
0

>  <SCORE.SYSTEM.DIHEDRAL>  (9) 
3.76711

>  <SCORE.SYSTEM.POLAR>  (9) 
-0.903911

>  <SCORE.SYSTEM.REPUL>  (9) 
1.24458

>  <SCORE.SYSTEM.VDW>  (9) 
1.35283

>  <SCORE.SYSTEM.norm>  (9) 
0.212866

>  <SCORE.heavy>  (9) 
30

>  <SCORE.norm>  (9) 
-0.469136

>  <pdb_header>  (9) 
CRYST1    1.000    1.000    1.000  90.00  90.00  90.00 P 1           1

>  <Predicted_Rank>  (9) 
10.0

$$$$
1uts_h
     RDKit          3D

 35 38  0  0  0  0  0  0  0  0999 V2000
    1.3511   -4.1954   17.9242 N   0  0  0  0  0  0  0  0  0  0  0  0
    0.2587   -2.0624   17.3818 C   0  0  0  0  0  0  0  0  0  0  0  0
    2.0330    2.3690   15.9416 C   0  0  0  0  0  0  0  0  0  0  0  0
    1.4586   -1.1262   17.2106 C   0  0  0  0  0  0  0  0  0  0  0  0
    1.1137    0.1822   17.6891 O   0  0  0  0  0  0  0  0  0  0  0  0
    0.6210   -3.4573   16.8689 C   0  0  0  0  0  0  0  0  0  0  0  0
    2.2153    3.4304   16.9576 N   0  0  0  0  0  0  0  0  0  0  0  0
    3.5635    4.0398   16.8088 C   0  0  0  0  0  0  0  0  0  0  0  0
    4.2695    4.0730   18.1675 C   0  0  0  0  0  0  0  0  0  0  0  0
    3.4515    4.8461   19.1289 N   0  0  0  0  0  0  0  0  0  0  0  0
    3.7266    6.3009   18.9510 C   0  0  0  0  0  0  0  0  0  0  0  0
    3.7858    4.4195   20.5171 C   0  0  0  0  0  0  0  0  0  0  0  0
    2.8815    7.1070   19.9507 C   0  0  0  0  0  0  0  0  0  0  0  0
    2.9429    5.2286   21.5192 C   0  0  0  0  0  0  0  0  0  0  0  0
    3.2163    6.6816   21.3394 N   0  0  0  0  0  0  0  0  0  0  0  0
   -2.1240    0.9784   15.9243 C   0  0  0  0  0  0  0  0  0  0  0  0
   -5.3626    4.4616   11.5374 N   0  0  0  0  0  0  0  0  0  0  0  0
   -1.7267    2.0442   15.0820 C   0  0  0  0  0  0  0  0  0  0  0  0
   -0.3782    2.4903   15.0929 C   0  0  0  0  0  0  0  0  0  0  0  0
    0.5747    1.8675   15.9449 C   0  0  0  0  0  0  0  0  0  0  0  0
    0.1683    0.8036   16.8053 C   0  0  0  0  0  0  0  0  0  0  0  0
   -1.1822    0.3594   16.7879 C   0  0  0  0  0  0  0  0  0  0  0  0
   -4.4713    4.6166   10.4514 C   0  0  0  0  0  0  0  0  0  0  0  0
   -3.1828    4.1400   10.7833 C   0  0  0  0  0  0  0  0  0  0  0  0
   -2.3018    3.0692   12.9377 C   0  0  0  0  0  0  0  0  0  0  0  0
   -2.6723    2.6544   14.2458 C   0  0  0  0  0  0  0  0  0  0  0  0
   -4.0045    2.8529   14.7017 C   0  0  0  0  0  0  0  0  0  0  0  0
   -4.9644    3.4630   13.8498 C   0  0  0  0  0  0  0  0  0  0  0  0
   -4.5923    3.8667   12.5293 C   0  0  0  0  0  0  0  0  0  0  0  0
   -3.2745    3.6717   12.0767 C   0  0  0  0  0  0  0  0  0  0  0  0
   -6.3107    4.7096   11.5784 H   0  0  0  0  0  0  0  0  0  0  0  0
    0.8315   -4.1305   18.8110 H   0  0  0  0  0  0  0  0  0  0  0  0
    1.4407   -5.1846   17.6517 H   0  0  0  0  0  0  0  0  0  0  0  0
    2.1215    3.0231   17.8994 H   0  0  0  0  0  0  0  0  0  0  0  0
    2.6448    7.2205   22.0058 H   0  0  0  0  0  0  0  0  0  0  0  0
  1  6  1  0
  1 32  1  0
  1 33  1  0
  2  4  1  0
  2  6  1  0
  3  7  1  0
  3 20  1  0
  4  5  1  0
  5 21  1  0
  7  8  1  0
  7 34  1  0
  8  9  1  0
  9 10  1  0
 10 11  1  0
 10 12  1  0
 11 13  1  0
 12 14  1  0
 13 15  1  0
 14 15  1  0
 15 35  1  0
 16 18  2  0
 16 22  1  0
 17 23  1  0
 17 29  1  0
 17 31  1  0
 18 19  1  0
 18 26  1  0
 19 20  2  0
 20 21  1  0
 21 22  2  0
 23 24  2  0
 24 30  1  0
 25 26  2  0
 25 30  1  0
 26 27  1  0
 27 28  2  0
 28 29  1  0
 29 30  2  0
M  END
>  <CHROM.0>  (10) 
61.69619004,-86.60266800,-51.47604011

>  <CHROM.1>  (10) 
49.57239392,179.82947196,82.68955541,-171.78907431,90.63752748,-70.32324674
-106.83003509,-129.79953408,-58.44004646,-82.93370034,-142.03376912,0.08783993
2.60826257,16.34253369,-0.07336361,0.77731047,3.10226764

>  <Name>  (10) 
1uts_h

>  <RI>  (10) 
3.0543e+07

>  <Rbt.Current_Directory>  (10) 
/home/jta30/NA_complexes/1uts

>  <Rbt.Executable>  (10) 
rbdock ($Id: //depot/dev/client3/rdock/2013.1/src/exe/rbdock.cxx#4 $)

>  <Rbt.Library>  (10) 
libRbt.so (2013.1, Build901 2013/11/27)

>  <Rbt.Parameter_File>  (10) 
/software/dev_tools/swtree/cs400_centos7.2_pe2016-08/rdock/2013.1/centos7.2_conda/build/data/scripts/dock.prm

>  <Rbt.Receptor>  (10) 
1uts.prm

>  <SCORE>  (10) 
-2.50889

>  <SCORE.INTER>  (10) 
-6.46213

>  <SCORE.INTER.CONST>  (10) 
1

>  <SCORE.INTER.POLAR>  (10) 
-1.287

>  <SCORE.INTER.REPUL>  (10) 
0.00302403

>  <SCORE.INTER.ROT>  (10) 
11

>  <SCORE.INTER.VDW>  (10) 
-18.5015

>  <SCORE.INTER.norm>  (10) 
-0.215404

>  <SCORE.INTRA>  (10) 
-0.828353

>  <SCORE.INTRA.DIHEDRAL>  (10) 
-3.0945

>  <SCORE.INTRA.DIHEDRAL.0>  (10) 
14.7121

>  <SCORE.INTRA.POLAR>  (10) 
0

>  <SCORE.INTRA.POLAR.0>  (10) 
0

>  <SCORE.INTRA.REPUL>  (10) 
0

>  <SCORE.INTRA.REPUL.0>  (10) 
0

>  <SCORE.INTRA.VDW>  (10) 
0.718896

>  <SCORE.INTRA.VDW.0>  (10) 
-0.649219

>  <SCORE.INTRA.norm>  (10) 
-0.0276118

>  <SCORE.RESTR>  (10) 
0.00271382

>  <SCORE.RESTR.CAVITY>  (10) 
0.00271382

>  <SCORE.RESTR.norm>  (10) 
9.04606e-05

>  <SCORE.SYSTEM>  (10) 
4.77888

>  <SCORE.SYSTEM.CONST>  (10) 
0

>  <SCORE.SYSTEM.DIHEDRAL>  (10) 
3.50452

>  <SCORE.SYSTEM.POLAR>  (10) 
-0.895864

>  <SCORE.SYSTEM.REPUL>  (10) 
0.879565

>  <SCORE.SYSTEM.VDW>  (10) 
1.67474

>  <SCORE.SYSTEM.norm>  (10) 
0.159296

>  <SCORE.heavy>  (10) 
30

>  <SCORE.norm>  (10) 
-0.0836296

>  <pdb_header>  (10) 
CRYST1    1.000    1.000    1.000  90.00  90.00  90.00 P 1           1

>  <Predicted_Rank>  (10) 
11.0

$$$$
1uts_h
     RDKit          3D

 35 38  0  0  0  0  0  0  0  0999 V2000
    3.6536    1.5959   19.3605 N   0  0  0  0  0  0  0  0  0  0  0  0
    4.5934    1.0983   17.1455 C   0  0  0  0  0  0  0  0  0  0  0  0
    2.0327    4.5319   16.2834 C   0  0  0  0  0  0  0  0  0  0  0  0
    3.4529    1.7172   16.3322 C   0  0  0  0  0  0  0  0  0  0  0  0
    2.2519    1.7148   17.1180 O   0  0  0  0  0  0  0  0  0  0  0  0
    4.7804    1.8841   18.4446 C   0  0  0  0  0  0  0  0  0  0  0  0
    1.6225    5.2264   17.5250 N   0  0  0  0  0  0  0  0  0  0  0  0
    2.0124    4.4122   18.7065 C   0  0  0  0  0  0  0  0  0  0  0  0
    3.1733    5.0888   19.4414 C   0  0  0  0  0  0  0  0  0  0  0  0
    3.6068    4.2346   20.5698 N   0  0  0  0  0  0  0  0  0  0  0  0
    2.6726    4.4226   21.7169 C   0  0  0  0  0  0  0  0  0  0  0  0
    4.9957    4.6040   20.9641 C   0  0  0  0  0  0  0  0  0  0  0  0
    3.1220    3.5397   22.8923 C   0  0  0  0  0  0  0  0  0  0  0  0
    5.4453    3.7230   22.1436 C   0  0  0  0  0  0  0  0  0  0  0  0
    4.5105    3.9095   23.2880 N   0  0  0  0  0  0  0  0  0  0  0  0
   -0.9662    1.5397   15.1572 C   0  0  0  0  0  0  0  0  0  0  0  0
   -5.4694    4.3257   11.4920 N   0  0  0  0  0  0  0  0  0  0  0  0
   -1.1178    2.8870   14.7509 C   0  0  0  0  0  0  0  0  0  0  0  0
   -0.1426    3.8516   15.1196 C   0  0  0  0  0  0  0  0  0  0  0  0
    0.9872    3.4677   15.8931 C   0  0  0  0  0  0  0  0  0  0  0  0
    1.1297    2.1119   16.3155 C   0  0  0  0  0  0  0  0  0  0  0  0
    0.1519    1.1500   15.9408 C   0  0  0  0  0  0  0  0  0  0  0  0
   -4.7674    4.3551   10.2656 C   0  0  0  0  0  0  0  0  0  0  0  0
   -3.4004    4.0521   10.4586 C   0  0  0  0  0  0  0  0  0  0  0  0
   -2.1055    3.4604   12.5887 C   0  0  0  0  0  0  0  0  0  0  0  0
   -2.2350    3.2584   13.9897 C   0  0  0  0  0  0  0  0  0  0  0  0
   -3.5005    3.4267   14.6161 C   0  0  0  0  0  0  0  0  0  0  0  0
   -4.6342    3.7941   13.8419 C   0  0  0  0  0  0  0  0  0  0  0  0
   -4.5035    3.9831   12.4305 C   0  0  0  0  0  0  0  0  0  0  0  0
   -3.2522    3.8176   11.8090 C   0  0  0  0  0  0  0  0  0  0  0  0
   -6.4227    4.4993   11.6444 H   0  0  0  0  0  0  0  0  0  0  0  0
    3.6175    2.3144   20.0975 H   0  0  0  0  0  0  0  0  0  0  0  0
    2.7703    1.6040   18.8310 H   0  0  0  0  0  0  0  0  0  0  0  0
    0.6012    5.3625   17.5202 H   0  0  0  0  0  0  0  0  0  0  0  0
    4.8096    3.3127   24.0724 H   0  0  0  0  0  0  0  0  0  0  0  0
  1  6  1  0
  1 32  1  0
  1 33  1  0
  2  4  1  0
  2  6  1  0
  3  7  1  0
  3 20  1  0
  4  5  1  0
  5 21  1  0
  7  8  1  0
  7 34  1  0
  8  9  1  0
  9 10  1  0
 10 11  1  0
 10 12  1  0
 11 13  1  0
 12 14  1  0
 13 15  1  0
 14 15  1  0
 15 35  1  0
 16 18  2  0
 16 22  1  0
 17 23  1  0
 17 29  1  0
 17 31  1  0
 18 19  1  0
 18 26  1  0
 19 20  2  0
 20 21  1  0
 21 22  2  0
 23 24  2  0
 24 30  1  0
 25 26  2  0
 25 30  1  0
 26 27  1  0
 27 28  2  0
 28 29  1  0
 29 30  2  0
M  END
>  <CHROM.0>  (11) 
59.80797758,-86.66823504,-175.01802588

>  <CHROM.1>  (11) 
-163.13866463,-57.87460043,72.26666165,82.43121243,85.70291099,-171.79125455
-71.53472296,108.81096845,-176.77016084,-79.65025220,-102.40045527,0.80291489
3.37548143,16.77402843,-0.65455648,0.55697138,-2.14810211

>  <Name>  (11) 
1uts_h

>  <RI>  (11) 
3.0543e+07

>  <Rbt.Current_Directory>  (11) 
/home/jta30/NA_complexes/1uts

>  <Rbt.Executable>  (11) 
rbdock ($Id: //depot/dev/client3/rdock/2013.1/src/exe/rbdock.cxx#4 $)

>  <Rbt.Library>  (11) 
libRbt.so (2013.1, Build901 2013/11/27)

>  <Rbt.Parameter_File>  (11) 
/software/dev_tools/swtree/cs400_centos7.2_pe2016-08/rdock/2013.1/centos7.2_conda/build/data/scripts/dock.prm

>  <Rbt.Receptor>  (11) 
1uts.prm

>  <SCORE>  (11) 
-10.1734

>  <SCORE.INTER>  (11) 
-7.35895

>  <SCORE.INTER.CONST>  (11) 
1

>  <SCORE.INTER.POLAR>  (11) 
-0.836524

>  <SCORE.INTER.REPUL>  (11) 
0.00406402

>  <SCORE.INTER.ROT>  (11) 
11

>  <SCORE.INTER.VDW>  (11) 
-20.9351

>  <SCORE.INTER.norm>  (11) 
-0.245298

>  <SCORE.INTRA>  (11) 
-10.0746

>  <SCORE.INTRA.DIHEDRAL>  (11) 
-3.76099

>  <SCORE.INTRA.DIHEDRAL.0>  (11) 
14.7121

>  <SCORE.INTRA.POLAR>  (11) 
-1.715

>  <SCORE.INTRA.POLAR.0>  (11) 
0

>  <SCORE.INTRA.REPUL>  (11) 
0

>  <SCORE.INTRA.REPUL.0>  (11) 
0

>  <SCORE.INTRA.VDW>  (11) 
-2.36308

>  <SCORE.INTRA.VDW.0>  (11) 
-0.649219

>  <SCORE.INTRA.norm>  (11) 
-0.335819

>  <SCORE.RESTR>  (11) 
0

>  <SCORE.RESTR.CAVITY>  (11) 
0

>  <SCORE.RESTR.norm>  (11) 
0

>  <SCORE.SYSTEM>  (11) 
7.26018

>  <SCORE.SYSTEM.CONST>  (11) 
0

>  <SCORE.SYSTEM.DIHEDRAL>  (11) 
3.27885

>  <SCORE.SYSTEM.POLAR>  (11) 
-0.88417

>  <SCORE.SYSTEM.REPUL>  (11) 
1.50262

>  <SCORE.SYSTEM.VDW>  (11) 
1.11383

>  <SCORE.SYSTEM.norm>  (11) 
0.242006

>  <SCORE.heavy>  (11) 
30

>  <SCORE.norm>  (11) 
-0.339112

>  <pdb_header>  (11) 
CRYST1    1.000    1.000    1.000  90.00  90.00  90.00 P 1           1

>  <Predicted_Rank>  (11) 
12.0

$$$$
1uts_h
     RDKit          3D

 35 38  0  0  0  0  0  0  0  0999 V2000
    6.1998   -1.1037   17.3875 N   0  0  0  0  0  0  0  0  0  0  0  0
    4.2519    0.3870   17.2438 C   0  0  0  0  0  0  0  0  0  0  0  0
    1.9596    4.5897   16.3275 C   0  0  0  0  0  0  0  0  0  0  0  0
    3.0068    0.7255   16.4189 C   0  0  0  0  0  0  0  0  0  0  0  0
    2.2623    1.7577   17.0823 O   0  0  0  0  0  0  0  0  0  0  0  0
    4.9649   -0.8160   16.6236 C   0  0  0  0  0  0  0  0  0  0  0  0
    3.3447    4.1052   16.1303 N   0  0  0  0  0  0  0  0  0  0  0  0
    4.1845    4.5030   17.2911 C   0  0  0  0  0  0  0  0  0  0  0  0
    5.4482    3.6390   17.3362 C   0  0  0  0  0  0  0  0  0  0  0  0
    6.1954    3.9238   18.5818 N   0  0  0  0  0  0  0  0  0  0  0  0
    7.0676    5.1149   18.3714 C   0  0  0  0  0  0  0  0  0  0  0  0
    7.0171    2.7356   18.9478 C   0  0  0  0  0  0  0  0  0  0  0  0
    7.8483    5.4115   19.6621 C   0  0  0  0  0  0  0  0  0  0  0  0
    7.8021    3.0327   20.2381 C   0  0  0  0  0  0  0  0  0  0  0  0
    8.6712    4.2239   20.0279 N   0  0  0  0  0  0  0  0  0  0  0  0
   -0.9478    1.5425   15.1125 C   0  0  0  0  0  0  0  0  0  0  0  0
   -5.5305    4.2939   11.5210 N   0  0  0  0  0  0  0  0  0  0  0  0
   -1.1393    2.8956   14.7443 C   0  0  0  0  0  0  0  0  0  0  0  0
   -0.1936    3.8780   15.1417 C   0  0  0  0  0  0  0  0  0  0  0  0
    0.9466    3.5062   15.9056 C   0  0  0  0  0  0  0  0  0  0  0  0
    1.1292    2.1438   16.2897 C   0  0  0  0  0  0  0  0  0  0  0  0
    0.1809    1.1642   15.8864 C   0  0  0  0  0  0  0  0  0  0  0  0
   -4.8309    4.3687   10.2951 C   0  0  0  0  0  0  0  0  0  0  0  0
   -3.4564    4.0968   10.4805 C   0  0  0  0  0  0  0  0  0  0  0  0
   -2.1441    3.4914   12.5960 C   0  0  0  0  0  0  0  0  0  0  0  0
   -2.2667    3.2549   13.9923 C   0  0  0  0  0  0  0  0  0  0  0  0
   -3.5354    3.3765   14.6231 C   0  0  0  0  0  0  0  0  0  0  0  0
   -4.6790    3.7317   13.8580 C   0  0  0  0  0  0  0  0  0  0  0  0
   -4.5550    3.9554   12.4510 C   0  0  0  0  0  0  0  0  0  0  0  0
   -3.3006    3.8361   11.8253 C   0  0  0  0  0  0  0  0  0  0  0  0
   -6.4877    4.4394   11.6778 H   0  0  0  0  0  0  0  0  0  0  0  0
    6.8062   -0.2713   17.3866 H   0  0  0  0  0  0  0  0  0  0  0  0
    5.9542   -1.3471   18.3577 H   0  0  0  0  0  0  0  0  0  0  0  0
    3.7312    4.5141   15.2671 H   0  0  0  0  0  0  0  0  0  0  0  0
    9.1889    4.4247   20.8955 H   0  0  0  0  0  0  0  0  0  0  0  0
  1  6  1  0
  1 32  1  0
  1 33  1  0
  2  4  1  0
  2  6  1  0
  3  7  1  0
  3 20  1  0
  4  5  1  0
  5 21  1  0
  7  8  1  0
  7 34  1  0
  8  9  1  0
  9 10  1  0
 10 11  1  0
 10 12  1  0
 11 13  1  0
 12 14  1  0
 13 15  1  0
 14 15  1  0
 15 35  1  0
 16 18  2  0
 16 22  1  0
 17 23  1  0
 17 29  1  0
 17 31  1  0
 18 19  1  0
 18 26  1  0
 19 20  2  0
 20 21  1  0
 21 22  2  0
 23 24  2  0
 24 30  1  0
 25 26  2  0
 25 30  1  0
 26 27  1  0
 27 28  2  0
 28 29  1  0
 29 30  2  0
M  END
>  <CHROM.0>  (12) 
59.35364939,64.90720909,-175.79788315

>  <CHROM.1>  (12) 
-57.96063648,173.77270978,177.51701175,-137.93563699,-136.58239999,176.80713052
-124.03244555,161.18289707,-173.08213216,-84.71778772,-101.96897573,1.81562125
3.03129798,15.90251933,0.04431181,0.53535262,-3.11910626

>  <Name>  (12) 
1uts_h

>  <RI>  (12) 
3.0543e+07

>  <Rbt.Current_Directory>  (12) 
/home/jta30/NA_complexes/1uts

>  <Rbt.Executable>  (12) 
rbdock ($Id: //depot/dev/client3/rdock/2013.1/src/exe/rbdock.cxx#4 $)

>  <Rbt.Library>  (12) 
libRbt.so (2013.1, Build901 2013/11/27)

>  <Rbt.Parameter_File>  (12) 
/software/dev_tools/swtree/cs400_centos7.2_pe2016-08/rdock/2013.1/centos7.2_conda/build/data/scripts/dock.prm

>  <Rbt.Receptor>  (12) 
1uts.prm

>  <SCORE>  (12) 
-10.4643

>  <SCORE.INTER>  (12) 
-9.73981

>  <SCORE.INTER.CONST>  (12) 
1

>  <SCORE.INTER.POLAR>  (12) 
-0.735281

>  <SCORE.INTER.REPUL>  (12) 
0

>  <SCORE.INTER.ROT>  (12) 
11

>  <SCORE.INTER.VDW>  (12) 
-23.6399

>  <SCORE.INTER.norm>  (12) 
-0.32466

>  <SCORE.INTRA>  (12) 
-4.61486

>  <SCORE.INTRA.DIHEDRAL>  (12) 
-4.92593

>  <SCORE.INTRA.DIHEDRAL.0>  (12) 
14.7121

>  <SCORE.INTRA.POLAR>  (12) 
0

>  <SCORE.INTRA.POLAR.0>  (12) 
0

>  <SCORE.INTRA.REPUL>  (12) 
0

>  <SCORE.INTRA.REPUL.0>  (12) 
0

>  <SCORE.INTRA.VDW>  (12) 
-2.1519

>  <SCORE.INTRA.VDW.0>  (12) 
-0.649219

>  <SCORE.INTRA.norm>  (12) 
-0.153829

>  <SCORE.RESTR>  (12) 
0

>  <SCORE.RESTR.CAVITY>  (12) 
0

>  <SCORE.RESTR.norm>  (12) 
0

>  <SCORE.SYSTEM>  (12) 
3.89037

>  <SCORE.SYSTEM.CONST>  (12) 
0

>  <SCORE.SYSTEM.DIHEDRAL>  (12) 
0.446611

>  <SCORE.SYSTEM.POLAR>  (12) 
-0.0745012

>  <SCORE.SYSTEM.REPUL>  (12) 
1.07993

>  <SCORE.SYSTEM.VDW>  (12) 
-1.47927

>  <SCORE.SYSTEM.norm>  (12) 
0.129679

>  <SCORE.heavy>  (12) 
30

>  <SCORE.norm>  (12) 
-0.34881

>  <pdb_header>  (12) 
CRYST1    1.000    1.000    1.000  90.00  90.00  90.00 P 1           1

>  <Predicted_Rank>  (12) 
13.0

$$$$
1uts_h
     RDKit          3D

 35 38  0  0  0  0  0  0  0  0999 V2000
    4.9943    0.6386   20.5300 N   0  0  0  0  0  0  0  0  0  0  0  0
    3.7324    0.8033   18.4282 C   0  0  0  0  0  0  0  0  0  0  0  0
    2.1472    3.9743   15.6359 C   0  0  0  0  0  0  0  0  0  0  0  0
    2.3575    1.1098   17.8275 C   0  0  0  0  0  0  0  0  0  0  0  0
    2.4603    1.1451   16.3964 O   0  0  0  0  0  0  0  0  0  0  0  0
    3.6502    0.8698   19.9543 C   0  0  0  0  0  0  0  0  0  0  0  0
    1.7596    4.9577   16.6727 N   0  0  0  0  0  0  0  0  0  0  0  0
    1.3448    4.2443   17.9096 C   0  0  0  0  0  0  0  0  0  0  0  0
    1.1372    5.2522   19.0438 C   0  0  0  0  0  0  0  0  0  0  0  0
    2.4054    5.9702   19.3030 N   0  0  0  0  0  0  0  0  0  0  0  0
    3.2542    5.1553   20.2191 C   0  0  0  0  0  0  0  0  0  0  0  0
    2.1064    7.2966   19.9131 C   0  0  0  0  0  0  0  0  0  0  0  0
    4.5709    5.8998   20.4936 C   0  0  0  0  0  0  0  0  0  0  0  0
    3.4243    8.0415   20.1920 C   0  0  0  0  0  0  0  0  0  0  0  0
    4.2726    7.2259   21.1051 N   0  0  0  0  0  0  0  0  0  0  0  0
   -1.0665    1.0493   15.0607 C   0  0  0  0  0  0  0  0  0  0  0  0
   -6.2970    3.9970   12.7618 N   0  0  0  0  0  0  0  0  0  0  0  0
   -1.2635    2.4033   14.6985 C   0  0  0  0  0  0  0  0  0  0  0  0
   -0.2181    3.3460   14.8880 C   0  0  0  0  0  0  0  0  0  0  0  0
    1.0268    2.9335   15.4375 C   0  0  0  0  0  0  0  0  0  0  0  0
    1.2177    1.5709   15.8171 C   0  0  0  0  0  0  0  0  0  0  0  0
    0.1687    0.6311   15.6222 C   0  0  0  0  0  0  0  0  0  0  0  0
   -7.0341    3.7097   13.9331 C   0  0  0  0  0  0  0  0  0  0  0  0
   -6.1970    3.1743   14.9382 C   0  0  0  0  0  0  0  0  0  0  0  0
   -3.6770    2.7121   14.9418 C   0  0  0  0  0  0  0  0  0  0  0  0
   -2.4941    2.8029   14.1587 C   0  0  0  0  0  0  0  0  0  0  0  0
   -2.5603    3.3059   12.8303 C   0  0  0  0  0  0  0  0  0  0  0  0
   -3.8069    3.7192   12.2875 C   0  0  0  0  0  0  0  0  0  0  0  0
   -4.9929    3.6397   13.0825 C   0  0  0  0  0  0  0  0  0  0  0  0
   -4.9295    3.1418   14.3968 C   0  0  0  0  0  0  0  0  0  0  0  0
   -6.6289    4.3711   11.9181 H   0  0  0  0  0  0  0  0  0  0  0  0
    5.6120    1.4262   20.2876 H   0  0  0  0  0  0  0  0  0  0  0  0
    4.9206    0.5642   21.5546 H   0  0  0  0  0  0  0  0  0  0  0  0
    0.9775    5.5316   16.3253 H   0  0  0  0  0  0  0  0  0  0  0  0
    5.1568    7.7235   21.2831 H   0  0  0  0  0  0  0  0  0  0  0  0
  1  6  1  0
  1 32  1  0
  1 33  1  0
  2  4  1  0
  2  6  1  0
  3  7  1  0
  3 20  1  0
  4  5  1  0
  5 21  1  0
  7  8  1  0
  7 34  1  0
  8  9  1  0
  9 10  1  0
 10 11  1  0
 10 12  1  0
 11 13  1  0
 12 14  1  0
 13 15  1  0
 14 15  1  0
 15 35  1  0
 16 18  2  0
 16 22  1  0
 17 23  1  0
 17 29  1  0
 17 31  1  0
 18 19  1  0
 18 26  1  0
 19 20  2  0
 20 21  1  0
 21 22  2  0
 23 24  2  0
 24 30  1  0
 25 26  2  0
 25 30  1  0
 26 27  1  0
 27 28  2  0
 28 29  1  0
 29 30  2  0
M  END
>  <CHROM.0>  (13) 
-177.60277746,65.87192588,51.62632127

>  <CHROM.1>  (13) 
67.18904719,175.72646850,-177.25397532,52.54635975,66.79729877,-173.84486714
97.32840858,171.91576925,-60.37946176,-84.08855893,63.76630487,0.27036192
3.53845690,16.78950054,-0.34374613,0.56927649,-2.76577037

>  <Name>  (13) 
1uts_h

>  <RI>  (13) 
3.0543e+07

>  <Rbt.Current_Directory>  (13) 
/home/jta30/NA_complexes/1uts

>  <Rbt.Executable>  (13) 
rbdock ($Id: //depot/dev/client3/rdock/2013.1/src/exe/rbdock.cxx#4 $)

>  <Rbt.Library>  (13) 
libRbt.so (2013.1, Build901 2013/11/27)

>  <Rbt.Parameter_File>  (13) 
/software/dev_tools/swtree/cs400_centos7.2_pe2016-08/rdock/2013.1/centos7.2_conda/build/data/scripts/dock.prm

>  <Rbt.Receptor>  (13) 
1uts.prm

>  <SCORE>  (13) 
-11.7802

>  <SCORE.INTER>  (13) 
-9.53242

>  <SCORE.INTER.CONST>  (13) 
1

>  <SCORE.INTER.POLAR>  (13) 
-1.10156

>  <SCORE.INTER.REPUL>  (13) 
0.000658308

>  <SCORE.INTER.ROT>  (13) 
11

>  <SCORE.INTER.VDW>  (13) 
-22.1904

>  <SCORE.INTER.norm>  (13) 
-0.317747

>  <SCORE.INTRA>  (13) 
-5.04651

>  <SCORE.INTRA.DIHEDRAL>  (13) 
-7.2275

>  <SCORE.INTRA.DIHEDRAL.0>  (13) 
14.7121

>  <SCORE.INTRA.POLAR>  (13) 
0

>  <SCORE.INTRA.POLAR.0>  (13) 
0

>  <SCORE.INTRA.REPUL>  (13) 
0.00547382

>  <SCORE.INTRA.REPUL.0>  (13) 
0

>  <SCORE.INTRA.VDW>  (13) 
-1.46013

>  <SCORE.INTRA.VDW.0>  (13) 
-0.649219

>  <SCORE.INTRA.norm>  (13) 
-0.168217

>  <SCORE.RESTR>  (13) 
0

>  <SCORE.RESTR.CAVITY>  (13) 
0

>  <SCORE.RESTR.norm>  (13) 
0

>  <SCORE.SYSTEM>  (13) 
2.79872

>  <SCORE.SYSTEM.CONST>  (13) 
0

>  <SCORE.SYSTEM.DIHEDRAL>  (13) 
0.768048

>  <SCORE.SYSTEM.POLAR>  (13) 
-0.199248

>  <SCORE.SYSTEM.REPUL>  (13) 
0.77848

>  <SCORE.SYSTEM.VDW>  (13) 
-0.800258

>  <SCORE.SYSTEM.norm>  (13) 
0.0932907

>  <SCORE.heavy>  (13) 
30

>  <SCORE.norm>  (13) 
-0.392673

>  <pdb_header>  (13) 
CRYST1    1.000    1.000    1.000  90.00  90.00  90.00 P 1           1

>  <Predicted_Rank>  (13) 
14.0

$$$$
1uts_h
     RDKit          3D

 35 38  0  0  0  0  0  0  0  0999 V2000
    5.6165    5.5534   17.5845 N   0  0  0  0  0  0  0  0  0  0  0  0
    3.6834    4.0484   17.3966 C   0  0  0  0  0  0  0  0  0  0  0  0
    1.0246    0.5962   15.8095 C   0  0  0  0  0  0  0  0  0  0  0  0
    3.2803    2.7125   16.7655 C   0  0  0  0  0  0  0  0  0  0  0  0
    2.7656    2.9453   15.4462 O   0  0  0  0  0  0  0  0  0  0  0  0
    4.9297    4.5904   16.6943 C   0  0  0  0  0  0  0  0  0  0  0  0
   -0.0346   -0.4002   15.5314 N   0  0  0  0  0  0  0  0  0  0  0  0
    0.4435   -1.7573   15.9062 C   0  0  0  0  0  0  0  0  0  0  0  0
    0.4371   -1.9060   17.4305 C   0  0  0  0  0  0  0  0  0  0  0  0
    0.9209   -3.2564   17.7957 N   0  0  0  0  0  0  0  0  0  0  0  0
    0.4587   -3.5889   19.1740 C   0  0  0  0  0  0  0  0  0  0  0  0
    2.4092   -3.2839   17.7254 C   0  0  0  0  0  0  0  0  0  0  0  0
    0.9627   -4.9894   19.5584 C   0  0  0  0  0  0  0  0  0  0  0  0
    2.9152   -4.6848   18.1137 C   0  0  0  0  0  0  0  0  0  0  0  0
    2.4512   -5.0171   19.4894 N   0  0  0  0  0  0  0  0  0  0  0  0
   -0.6015    4.6457   15.3952 C   0  0  0  0  0  0  0  0  0  0  0  0
   -7.0502    4.2497   15.4045 N   0  0  0  0  0  0  0  0  0  0  0  0
   -1.4730    3.5414   15.5501 C   0  0  0  0  0  0  0  0  0  0  0  0
   -0.9395    2.2318   15.6834 C   0  0  0  0  0  0  0  0  0  0  0  0
    0.4675    2.0268   15.6648 C   0  0  0  0  0  0  0  0  0  0  0  0
    1.3440    3.1399   15.4921 C   0  0  0  0  0  0  0  0  0  0  0  0
    0.8043    4.4489   15.3623 C   0  0  0  0  0  0  0  0  0  0  0  0
   -7.2524    3.7758   14.0884 C   0  0  0  0  0  0  0  0  0  0  0  0
   -6.0262    3.4060   13.4906 C   0  0  0  0  0  0  0  0  0  0  0  0
   -3.6381    3.4423   14.4178 C   0  0  0  0  0  0  0  0  0  0  0  0
   -2.8592    3.7511   15.5660 C   0  0  0  0  0  0  0  0  0  0  0  0
   -3.4890    4.2661   16.7323 C   0  0  0  0  0  0  0  0  0  0  0  0
   -4.8953    4.4695   16.7503 C   0  0  0  0  0  0  0  0  0  0  0  0
   -5.6781    4.1449   15.5984 C   0  0  0  0  0  0  0  0  0  0  0  0
   -5.0567    3.6358   14.4434 C   0  0  0  0  0  0  0  0  0  0  0  0
   -7.7253    4.5713   16.0392 H   0  0  0  0  0  0  0  0  0  0  0  0
    6.5672    5.7308   17.2304 H   0  0  0  0  0  0  0  0  0  0  0  0
    5.0887    6.4375   17.6060 H   0  0  0  0  0  0  0  0  0  0  0  0
   -0.2688   -0.3804   14.5282 H   0  0  0  0  0  0  0  0  0  0  0  0
    2.7847   -5.9582   19.7430 H   0  0  0  0  0  0  0  0  0  0  0  0
  1  6  1  0
  1 32  1  0
  1 33  1  0
  2  4  1  0
  2  6  1  0
  3  7  1  0
  3 20  1  0
  4  5  1  0
  5 21  1  0
  7  8  1  0
  7 34  1  0
  8  9  1  0
  9 10  1  0
 10 11  1  0
 10 12  1  0
 11 13  1  0
 12 14  1  0
 13 15  1  0
 14 15  1  0
 15 35  1  0
 16 18  2  0
 16 22  1  0
 17 23  1  0
 17 29  1  0
 17 31  1  0
 18 19  1  0
 18 26  1  0
 19 20  2  0
 20 21  1  0
 21 22  2  0
 23 24  2  0
 24 30  1  0
 25 26  2  0
 25 30  1  0
 26 27  1  0
 27 28  2  0
 28 29  1  0
 29 30  2  0
M  END
>  <CHROM.0>  (14) 
55.73107145,-86.84367964,-177.25620873

>  <CHROM.1>  (14) 
165.30608712,-70.39473434,-158.35789640,-170.02431066,17.56454742,-90.90073468
-76.15665012,74.79138288,-179.70161636,-159.35616185,103.18273691,-0.26623009
1.42477862,16.41249003,-0.79783480,-0.17487498,-0.25837062

>  <Name>  (14) 
1uts_h

>  <RI>  (14) 
3.0543e+07

>  <Rbt.Current_Directory>  (14) 
/home/jta30/NA_complexes/1uts

>  <Rbt.Executable>  (14) 
rbdock ($Id: //depot/dev/client3/rdock/2013.1/src/exe/rbdock.cxx#4 $)

>  <Rbt.Library>  (14) 
libRbt.so (2013.1, Build901 2013/11/27)

>  <Rbt.Parameter_File>  (14) 
/software/dev_tools/swtree/cs400_centos7.2_pe2016-08/rdock/2013.1/centos7.2_conda/build/data/scripts/dock.prm

>  <Rbt.Receptor>  (14) 
1uts.prm

>  <SCORE>  (14) 
-8.41444

>  <SCORE.INTER>  (14) 
-15.0677

>  <SCORE.INTER.CONST>  (14) 
1

>  <SCORE.INTER.POLAR>  (14) 
-1.48913

>  <SCORE.INTER.REPUL>  (14) 
0

>  <SCORE.INTER.ROT>  (14) 
11

>  <SCORE.INTER.VDW>  (14) 
-26.4047

>  <SCORE.INTER.norm>  (14) 
-0.502258

>  <SCORE.INTRA>  (14) 
-0.892221

>  <SCORE.INTRA.DIHEDRAL>  (14) 
-1.38226

>  <SCORE.INTRA.DIHEDRAL.0>  (14) 
14.7121

>  <SCORE.INTRA.POLAR>  (14) 
0

>  <SCORE.INTRA.POLAR.0>  (14) 
0

>  <SCORE.INTRA.REPUL>  (14) 
0

>  <SCORE.INTRA.REPUL.0>  (14) 
0

>  <SCORE.INTRA.VDW>  (14) 
-0.201091

>  <SCORE.INTRA.VDW.0>  (14) 
-0.649219

>  <SCORE.INTRA.norm>  (14) 
-0.0297407

>  <SCORE.RESTR>  (14) 
0.301711

>  <SCORE.RESTR.CAVITY>  (14) 
0.301711

>  <SCORE.RESTR.norm>  (14) 
0.010057

>  <SCORE.SYSTEM>  (14) 
7.24381

>  <SCORE.SYSTEM.CONST>  (14) 
0

>  <SCORE.SYSTEM.DIHEDRAL>  (14) 
3.31647

>  <SCORE.SYSTEM.POLAR>  (14) 
-0.88638

>  <SCORE.SYSTEM.REPUL>  (14) 
1.49967

>  <SCORE.SYSTEM.VDW>  (14) 
1.10091

>  <SCORE.SYSTEM.norm>  (14) 
0.24146

>  <SCORE.heavy>  (14) 
30

>  <SCORE.norm>  (14) 
-0.280481

>  <pdb_header>  (14) 
CRYST1    1.000    1.000    1.000  90.00  90.00  90.00 P 1           1

>  <Predicted_Rank>  (14) 
15.0

$$$$
1uts_h
     RDKit          3D

 35 38  0  0  0  0  0  0  0  0999 V2000
    4.4610    6.9313   19.7467 N   0  0  0  0  0  0  0  0  0  0  0  0
    2.4008    7.6089   20.9015 C   0  0  0  0  0  0  0  0  0  0  0  0
    0.9110    2.7454   20.6703 C   0  0  0  0  0  0  0  0  0  0  0  0
    2.1423    6.2513   21.5614 C   0  0  0  0  0  0  0  0  0  0  0  0
    2.5362    5.2029   20.6639 O   0  0  0  0  0  0  0  0  0  0  0  0
    3.9082    7.8386   20.7775 C   0  0  0  0  0  0  0  0  0  0  0  0
    1.9532    1.7808   20.2516 N   0  0  0  0  0  0  0  0  0  0  0  0
    1.4263    0.9147   19.1638 C   0  0  0  0  0  0  0  0  0  0  0  0
    2.3613    0.9782   17.9525 C   0  0  0  0  0  0  0  0  0  0  0  0
    2.4833    2.3813   17.4974 N   0  0  0  0  0  0  0  0  0  0  0  0
    2.1209    2.4638   16.0532 C   0  0  0  0  0  0  0  0  0  0  0  0
    3.8819    2.8499   17.7102 C   0  0  0  0  0  0  0  0  0  0  0  0
    2.2502    3.9193   15.5759 C   0  0  0  0  0  0  0  0  0  0  0  0
    4.0136    4.3062   17.2291 C   0  0  0  0  0  0  0  0  0  0  0  0
    3.6491    4.3882   15.7873 N   0  0  0  0  0  0  0  0  0  0  0  0
    0.4022    5.8540   17.6219 C   0  0  0  0  0  0  0  0  0  0  0  0
   -3.9793    3.9484   13.3147 N   0  0  0  0  0  0  0  0  0  0  0  0
   -0.3865    4.6795   17.5791 C   0  0  0  0  0  0  0  0  0  0  0  0
   -0.2162    3.6759   18.5697 C   0  0  0  0  0  0  0  0  0  0  0  0
    0.7418    3.8486   19.6062 C   0  0  0  0  0  0  0  0  0  0  0  0
    1.5475    5.0263   19.6381 C   0  0  0  0  0  0  0  0  0  0  0  0
    1.3704    6.0289   18.6456 C   0  0  0  0  0  0  0  0  0  0  0  0
   -3.0121    3.7959   12.2953 C   0  0  0  0  0  0  0  0  0  0  0  0
   -1.7044    3.9203   12.8169 C   0  0  0  0  0  0  0  0  0  0  0  0
   -0.8937    4.3258   15.2133 C   0  0  0  0  0  0  0  0  0  0  0  0
   -1.3281    4.5156   16.5533 C   0  0  0  0  0  0  0  0  0  0  0  0
   -2.7182    4.5320   16.8523 C   0  0  0  0  0  0  0  0  0  0  0  0
   -3.6714    4.3565   15.8130 C   0  0  0  0  0  0  0  0  0  0  0  0
   -3.2310    4.1519   14.4679 C   0  0  0  0  0  0  0  0  0  0  0  0
   -1.8561    4.1361   14.1701 C   0  0  0  0  0  0  0  0  0  0  0  0
   -4.9556    3.9106   13.2290 H   0  0  0  0  0  0  0  0  0  0  0  0
    4.4455    7.4019   18.8308 H   0  0  0  0  0  0  0  0  0  0  0  0
    5.4317    6.6870   19.9895 H   0  0  0  0  0  0  0  0  0  0  0  0
    2.2245    1.1983   21.0571 H   0  0  0  0  0  0  0  0  0  0  0  0
    3.7305    5.3650   15.4708 H   0  0  0  0  0  0  0  0  0  0  0  0
  1  6  1  0
  1 32  1  0
  1 33  1  0
  2  4  1  0
  2  6  1  0
  3  7  1  0
  3 20  1  0
  4  5  1  0
  5 21  1  0
  7  8  1  0
  7 34  1  0
  8  9  1  0
  9 10  1  0
 10 11  1  0
 10 12  1  0
 11 13  1  0
 12 14  1  0
 13 15  1  0
 14 15  1  0
 15 35  1  0
 16 18  2  0
 16 22  1  0
 17 23  1  0
 17 29  1  0
 17 31  1  0
 18 19  1  0
 18 26  1  0
 19 20  2  0
 20 21  1  0
 21 22  2  0
 23 24  2  0
 24 30  1  0
 25 26  2  0
 25 30  1  0
 26 27  1  0
 27 28  2  0
 28 29  1  0
 29 30  2  0
M  END
>  <CHROM.0>  (15) 
60.82259475,64.02523719,52.97733827

>  <CHROM.1>  (15) 
90.96192269,-68.73737052,70.86563512,-73.93311448,91.29529937,-77.07475541
-110.69767768,125.34194578,-58.10155672,-124.95447425,68.36286454,0.87215730
4.24123632,17.58434281,0.56814070,-0.63542043,0.60603964

>  <Name>  (15) 
1uts_h

>  <RI>  (15) 
3.0543e+07

>  <Rbt.Current_Directory>  (15) 
/home/jta30/NA_complexes/1uts

>  <Rbt.Executable>  (15) 
rbdock ($Id: //depot/dev/client3/rdock/2013.1/src/exe/rbdock.cxx#4 $)

>  <Rbt.Library>  (15) 
libRbt.so (2013.1, Build901 2013/11/27)

>  <Rbt.Parameter_File>  (15) 
/software/dev_tools/swtree/cs400_centos7.2_pe2016-08/rdock/2013.1/centos7.2_conda/build/data/scripts/dock.prm

>  <Rbt.Receptor>  (15) 
1uts.prm

>  <SCORE>  (15) 
-8.96572

>  <SCORE.INTER>  (15) 
-6.43706

>  <SCORE.INTER.CONST>  (15) 
1

>  <SCORE.INTER.POLAR>  (15) 
-0.632456

>  <SCORE.INTER.REPUL>  (15) 
0

>  <SCORE.INTER.ROT>  (15) 
11

>  <SCORE.INTER.VDW>  (15) 
-20.6867

>  <SCORE.INTER.norm>  (15) 
-0.214569

>  <SCORE.INTRA>  (15) 
-5.62187

>  <SCORE.INTRA.DIHEDRAL>  (15) 
-0.321351

>  <SCORE.INTRA.DIHEDRAL.0>  (15) 
14.7121

>  <SCORE.INTRA.POLAR>  (15) 
0

>  <SCORE.INTRA.POLAR.0>  (15) 
0

>  <SCORE.INTRA.REPUL>  (15) 
0

>  <SCORE.INTRA.REPUL.0>  (15) 
0

>  <SCORE.INTRA.VDW>  (15) 
-5.46119

>  <SCORE.INTRA.VDW.0>  (15) 
-0.649219

>  <SCORE.INTRA.norm>  (15) 
-0.187396

>  <SCORE.RESTR>  (15) 
0.0229876

>  <SCORE.RESTR.CAVITY>  (15) 
0.0229876

>  <SCORE.RESTR.norm>  (15) 
0.000766254

>  <SCORE.SYSTEM>  (15) 
3.07022

>  <SCORE.SYSTEM.CONST>  (15) 
0

>  <SCORE.SYSTEM.DIHEDRAL>  (15) 
0.559292

>  <SCORE.SYSTEM.POLAR>  (15) 
-0.0626037

>  <SCORE.SYSTEM.REPUL>  (15) 
0.79266

>  <SCORE.SYSTEM.VDW>  (15) 
-0.959871

>  <SCORE.SYSTEM.norm>  (15) 
0.102341

>  <SCORE.heavy>  (15) 
30

>  <SCORE.norm>  (15) 
-0.298857

>  <pdb_header>  (15) 
CRYST1    1.000    1.000    1.000  90.00  90.00  90.00 P 1           1

>  <Predicted_Rank>  (15) 
16.0

$$$$
1uts_h
     RDKit          3D

 35 38  0  0  0  0  0  0  0  0999 V2000
   -4.5126    4.6291   16.7153 N   0  0  0  0  0  0  0  0  0  0  0  0
   -3.6949    3.6513   14.6148 C   0  0  0  0  0  0  0  0  0  0  0  0
    0.8654    3.9690   15.4572 C   0  0  0  0  0  0  0  0  0  0  0  0
   -2.6856    2.6716   15.2205 C   0  0  0  0  0  0  0  0  0  0  0  0
   -1.5200    2.6118   14.3853 O   0  0  0  0  0  0  0  0  0  0  0  0
   -4.8944    3.7954   15.5532 C   0  0  0  0  0  0  0  0  0  0  0  0
    0.5466    4.6001   16.7581 N   0  0  0  0  0  0  0  0  0  0  0  0
   -0.9051    4.4522   17.0441 C   0  0  0  0  0  0  0  0  0  0  0  0
   -1.2568    5.1965   18.3356 C   0  0  0  0  0  0  0  0  0  0  0  0
   -0.4535    4.6511   19.4528 N   0  0  0  0  0  0  0  0  0  0  0  0
   -1.3203    4.5064   20.6576 C   0  0  0  0  0  0  0  0  0  0  0  0
    0.6843    5.5703   19.7381 C   0  0  0  0  0  0  0  0  0  0  0  0
   -0.4883    3.9437   21.8215 C   0  0  0  0  0  0  0  0  0  0  0  0
    1.5160    5.0099   20.9058 C   0  0  0  0  0  0  0  0  0  0  0  0
    0.6491    4.8633   22.1080 N   0  0  0  0  0  0  0  0  0  0  0  0
    0.3619   -0.3782   15.7079 C   0  0  0  0  0  0  0  0  0  0  0  0
    5.3583   -3.1208   18.6136 N   0  0  0  0  0  0  0  0  0  0  0  0
    1.5315    0.2333   16.2192 C   0  0  0  0  0  0  0  0  0  0  0  0
    1.6885    1.6425   16.1343 C   0  0  0  0  0  0  0  0  0  0  0  0
    0.6732    2.4412   15.5402 C   0  0  0  0  0  0  0  0  0  0  0  0
   -0.4981    1.8208   15.0105 C   0  0  0  0  0  0  0  0  0  0  0  0
   -0.6511    0.4101   15.1011 C   0  0  0  0  0  0  0  0  0  0  0  0
    4.4495   -4.0067   19.2358 C   0  0  0  0  0  0  0  0  0  0  0  0
    3.1138   -3.6194   18.9841 C   0  0  0  0  0  0  0  0  0  0  0  0
    2.1697   -1.6723   17.6123 C   0  0  0  0  0  0  0  0  0  0  0  0
    2.5289   -0.5609   16.8023 C   0  0  0  0  0  0  0  0  0  0  0  0
    3.9008   -0.2605   16.5790 C   0  0  0  0  0  0  0  0  0  0  0  0
    4.9108   -1.0718   17.1631 C   0  0  0  0  0  0  0  0  0  0  0  0
    4.5462   -2.1975   17.9661 C   0  0  0  0  0  0  0  0  0  0  0  0
    3.1895   -2.4959   18.1886 C   0  0  0  0  0  0  0  0  0  0  0  0
    6.3384   -3.1550   18.6284 H   0  0  0  0  0  0  0  0  0  0  0  0
   -5.3339    4.7725   17.3199 H   0  0  0  0  0  0  0  0  0  0  0  0
   -3.7725    4.1534   17.2506 H   0  0  0  0  0  0  0  0  0  0  0  0
    0.7924    5.6001   16.7232 H   0  0  0  0  0  0  0  0  0  0  0  0
    1.2067    4.4806   22.8850 H   0  0  0  0  0  0  0  0  0  0  0  0
  1  6  1  0
  1 32  1  0
  1 33  1  0
  2  4  1  0
  2  6  1  0
  3  7  1  0
  3 20  1  0
  4  5  1  0
  5 21  1  0
  7  8  1  0
  7 34  1  0
  8  9  1  0
  9 10  1  0
 10 11  1  0
 10 12  1  0
 11 13  1  0
 12 14  1  0
 13 15  1  0
 14 15  1  0
 15 35  1  0
 16 18  2  0
 16 22  1  0
 17 23  1  0
 17 29  1  0
 17 31  1  0
 18 19  1  0
 18 26  1  0
 19 20  2  0
 20 21  1  0
 21 22  2  0
 23 24  2  0
 24 30  1  0
 25 26  2  0
 25 30  1  0
 26 27  1  0
 27 28  2  0
 28 29  1  0
 29 30  2  0
M  END
>  <CHROM.0>  (16) 
-175.09902073,158.84438634,-54.41416592

>  <CHROM.1>  (16) 
176.72542617,-175.91008635,74.91632347,-66.78775114,-79.81015903,173.32946726
-108.48616299,-175.68338950,-58.74422186,-137.63902259,-38.73231614,0.52472974
1.90185224,17.49363923,2.70388006,-0.74877875,0.88643626

>  <Name>  (16) 
1uts_h

>  <RI>  (16) 
3.0543e+07

>  <Rbt.Current_Directory>  (16) 
/home/jta30/NA_complexes/1uts

>  <Rbt.Executable>  (16) 
rbdock ($Id: //depot/dev/client3/rdock/2013.1/src/exe/rbdock.cxx#4 $)

>  <Rbt.Library>  (16) 
libRbt.so (2013.1, Build901 2013/11/27)

>  <Rbt.Parameter_File>  (16) 
/software/dev_tools/swtree/cs400_centos7.2_pe2016-08/rdock/2013.1/centos7.2_conda/build/data/scripts/dock.prm

>  <Rbt.Receptor>  (16) 
1uts.prm

>  <SCORE>  (16) 
-7.9163

>  <SCORE.INTER>  (16) 
-4.8377

>  <SCORE.INTER.CONST>  (16) 
1

>  <SCORE.INTER.POLAR>  (16) 
-0.591309

>  <SCORE.INTER.REPUL>  (16) 
0

>  <SCORE.INTER.ROT>  (16) 
11

>  <SCORE.INTER.VDW>  (16) 
-19.2272

>  <SCORE.INTER.norm>  (16) 
-0.161257

>  <SCORE.INTRA>  (16) 
-4.32796

>  <SCORE.INTRA.DIHEDRAL>  (16) 
-5.47814

>  <SCORE.INTRA.DIHEDRAL.0>  (16) 
14.7121

>  <SCORE.INTRA.POLAR>  (16) 
0

>  <SCORE.INTRA.POLAR.0>  (16) 
0

>  <SCORE.INTRA.REPUL>  (16) 
0

>  <SCORE.INTRA.REPUL.0>  (16) 
0

>  <SCORE.INTRA.VDW>  (16) 
-1.58889

>  <SCORE.INTRA.VDW.0>  (16) 
-0.649219

>  <SCORE.INTRA.norm>  (16) 
-0.144265

>  <SCORE.RESTR>  (16) 
0.00443309

>  <SCORE.RESTR.CAVITY>  (16) 
0.00443309

>  <SCORE.RESTR.norm>  (16) 
0.00014777

>  <SCORE.SYSTEM>  (16) 
1.24493

>  <SCORE.SYSTEM.CONST>  (16) 
0

>  <SCORE.SYSTEM.DIHEDRAL>  (16) 
2.46085

>  <SCORE.SYSTEM.POLAR>  (16) 
-0.128141

>  <SCORE.SYSTEM.REPUL>  (16) 
0.117964

>  <SCORE.SYSTEM.VDW>  (16) 
-0.139634

>  <SCORE.SYSTEM.norm>  (16) 
0.0414977

>  <SCORE.heavy>  (16) 
30

>  <SCORE.norm>  (16) 
-0.263877

>  <pdb_header>  (16) 
CRYST1    1.000    1.000    1.000  90.00  90.00  90.00 P 1           1

>  <Predicted_Rank>  (16) 
17.0

$$$$
1uts_h
     RDKit          3D

 35 38  0  0  0  0  0  0  0  0999 V2000
    1.8630   -1.6414   17.3090 N   0  0  0  0  0  0  0  0  0  0  0  0
    1.2361    0.2495   18.7474 C   0  0  0  0  0  0  0  0  0  0  0  0
    1.1907    4.5340   16.0299 C   0  0  0  0  0  0  0  0  0  0  0  0
    0.3026    0.8377   17.6854 C   0  0  0  0  0  0  0  0  0  0  0  0
    1.0531    1.6976   16.8153 O   0  0  0  0  0  0  0  0  0  0  0  0
    2.3920   -0.4827   18.0634 C   0  0  0  0  0  0  0  0  0  0  0  0
    2.5769    4.0162   16.0811 N   0  0  0  0  0  0  0  0  0  0  0  0
    3.1729    4.3112   17.4110 C   0  0  0  0  0  0  0  0  0  0  0  0
    3.8053    3.0413   17.9882 C   0  0  0  0  0  0  0  0  0  0  0  0
    4.8194    2.5227   17.0429 N   0  0  0  0  0  0  0  0  0  0  0  0
    5.2733    1.1768   17.4974 C   0  0  0  0  0  0  0  0  0  0  0  0
    5.9704    3.4677   16.9854 C   0  0  0  0  0  0  0  0  0  0  0  0
    6.3297    0.6365   16.5199 C   0  0  0  0  0  0  0  0  0  0  0  0
    7.0305    2.9258   16.0098 C   0  0  0  0  0  0  0  0  0  0  0  0
    7.4816    1.5806   16.4629 N   0  0  0  0  0  0  0  0  0  0  0  0
   -1.4594    1.6921   14.0012 C   0  0  0  0  0  0  0  0  0  0  0  0
   -4.9667    4.7835    9.5852 N   0  0  0  0  0  0  0  0  0  0  0  0
   -1.4361    3.0507   13.6052 C   0  0  0  0  0  0  0  0  0  0  0  0
   -0.5754    3.9664   14.2671 C   0  0  0  0  0  0  0  0  0  0  0  0
    0.2654    3.5222   15.3242 C   0  0  0  0  0  0  0  0  0  0  0  0
    0.2285    2.1551   15.7329 C   0  0  0  0  0  0  0  0  0  0  0  0
   -0.6329    1.2424   15.0646 C   0  0  0  0  0  0  0  0  0  0  0  0
   -6.1659    4.5744   10.3036 C   0  0  0  0  0  0  0  0  0  0  0  0
   -5.9004    4.0430   11.5861 C   0  0  0  0  0  0  0  0  0  0  0  0
   -3.6805    3.4729   12.7309 C   0  0  0  0  0  0  0  0  0  0  0  0
   -2.2690    3.4817   12.5630 C   0  0  0  0  0  0  0  0  0  0  0  0
   -1.7036    3.9348   11.3394 C   0  0  0  0  0  0  0  0  0  0  0  0
   -2.5486    4.3801   10.2872 C   0  0  0  0  0  0  0  0  0  0  0  0
   -3.9676    4.3831   10.4642 C   0  0  0  0  0  0  0  0  0  0  0  0
   -4.5289    3.9346   11.6739 C   0  0  0  0  0  0  0  0  0  0  0  0
   -4.8630    5.1383    8.6767 H   0  0  0  0  0  0  0  0  0  0  0  0
    1.1842   -1.3135   16.6072 H   0  0  0  0  0  0  0  0  0  0  0  0
    2.6387   -2.1253   16.8349 H   0  0  0  0  0  0  0  0  0  0  0  0
    3.1381    4.4656   15.3429 H   0  0  0  0  0  0  0  0  0  0  0  0
    8.1849    1.2176   15.8037 H   0  0  0  0  0  0  0  0  0  0  0  0
  1  6  1  0
  1 32  1  0
  1 33  1  0
  2  4  1  0
  2  6  1  0
  3  7  1  0
  3 20  1  0
  4  5  1  0
  5 21  1  0
  7  8  1  0
  7 34  1  0
  8  9  1  0
  9 10  1  0
 10 11  1  0
 10 12  1  0
 11 13  1  0
 12 14  1  0
 13 15  1  0
 14 15  1  0
 15 35  1  0
 16 18  2  0
 16 22  1  0
 17 23  1  0
 17 29  1  0
 17 31  1  0
 18 19  1  0
 18 26  1  0
 19 20  2  0
 20 21  1  0
 21 22  2  0
 23 24  2  0
 24 30  1  0
 25 26  2  0
 25 30  1  0
 26 27  1  0
 27 28  2  0
 28 29  1  0
 29 30  2  0
M  END
>  <CHROM.0>  (17) 
-37.99186672,27.25312652,50.96832520

>  <CHROM.1>  (17) 
59.09973889,-56.52113007,-64.56291983,-138.65642354,-129.33376658,174.25503785
136.33733147,130.51847879,57.36538857,-170.90778336,66.35586925,0.73618885
2.64631581,14.99191887,0.56398369,0.28386051,2.36552623

>  <Name>  (17) 
1uts_h

>  <RI>  (17) 
3.0543e+07

>  <Rbt.Current_Directory>  (17) 
/home/jta30/NA_complexes/1uts

>  <Rbt.Executable>  (17) 
rbdock ($Id: //depot/dev/client3/rdock/2013.1/src/exe/rbdock.cxx#4 $)

>  <Rbt.Library>  (17) 
libRbt.so (2013.1, Build901 2013/11/27)

>  <Rbt.Parameter_File>  (17) 
/software/dev_tools/swtree/cs400_centos7.2_pe2016-08/rdock/2013.1/centos7.2_conda/build/data/scripts/dock.prm

>  <Rbt.Receptor>  (17) 
1uts.prm

>  <SCORE>  (17) 
-4.95263

>  <SCORE.INTER>  (17) 
-9.4221

>  <SCORE.INTER.CONST>  (17) 
1

>  <SCORE.INTER.POLAR>  (17) 
-0.8

>  <SCORE.INTER.REPUL>  (17) 
0

>  <SCORE.INTER.ROT>  (17) 
11

>  <SCORE.INTER.VDW>  (17) 
-23.1021

>  <SCORE.INTER.norm>  (17) 
-0.31407

>  <SCORE.INTRA>  (17) 
-2.52174

>  <SCORE.INTRA.DIHEDRAL>  (17) 
-4.12896

>  <SCORE.INTRA.DIHEDRAL.0>  (17) 
14.7121

>  <SCORE.INTRA.POLAR>  (17) 
0

>  <SCORE.INTRA.POLAR.0>  (17) 
0

>  <SCORE.INTRA.REPUL>  (17) 
0.0426706

>  <SCORE.INTRA.REPUL.0>  (17) 
0

>  <SCORE.INTRA.VDW>  (17) 
-0.670613

>  <SCORE.INTRA.VDW.0>  (17) 
-0.649219

>  <SCORE.INTRA.norm>  (17) 
-0.084058

>  <SCORE.RESTR>  (17) 
0.0101061

>  <SCORE.RESTR.CAVITY>  (17) 
0.0101061

>  <SCORE.RESTR.norm>  (17) 
0.000336871

>  <SCORE.SYSTEM>  (17) 
6.98111

>  <SCORE.SYSTEM.CONST>  (17) 
0

>  <SCORE.SYSTEM.DIHEDRAL>  (17) 
6.76121

>  <SCORE.SYSTEM.POLAR>  (17) 
-0.158017

>  <SCORE.SYSTEM.REPUL>  (17) 
0.772015

>  <SCORE.SYSTEM.VDW>  (17) 
0.277685

>  <SCORE.SYSTEM.norm>  (17) 
0.232704

>  <SCORE.heavy>  (17) 
30

>  <SCORE.norm>  (17) 
-0.165088

>  <pdb_header>  (17) 
CRYST1    1.000    1.000    1.000  90.00  90.00  90.00 P 1           1

>  <Predicted_Rank>  (17) 
18.0

$$$$
1uts_h
     RDKit          3D

 35 38  0  0  0  0  0  0  0  0999 V2000
    0.4168    6.1719   17.8588 N   0  0  0  0  0  0  0  0  0  0  0  0
   -0.1852    5.3212   20.0839 C   0  0  0  0  0  0  0  0  0  0  0  0
    1.9795    3.6519   16.2117 C   0  0  0  0  0  0  0  0  0  0  0  0
    0.5933    4.0328   19.8025 C   0  0  0  0  0  0  0  0  0  0  0  0
    1.7855    4.3475   19.0682 O   0  0  0  0  0  0  0  0  0  0  0  0
   -0.7171    5.8949   18.7693 C   0  0  0  0  0  0  0  0  0  0  0  0
    0.5017    3.6473   16.3019 N   0  0  0  0  0  0  0  0  0  0  0  0
   -0.0830    3.8957   14.9575 C   0  0  0  0  0  0  0  0  0  0  0  0
   -1.3808    3.0976   14.8017 C   0  0  0  0  0  0  0  0  0  0  0  0
   -2.4851    3.8165   15.4758 N   0  0  0  0  0  0  0  0  0  0  0  0
   -2.4053    3.5751   16.9452 C   0  0  0  0  0  0  0  0  0  0  0  0
   -3.7891    3.3337   14.9396 C   0  0  0  0  0  0  0  0  0  0  0  0
   -3.5532    4.3172   17.6485 C   0  0  0  0  0  0  0  0  0  0  0  0
   -4.9395    4.0735   15.6457 C   0  0  0  0  0  0  0  0  0  0  0  0
   -4.8577    3.8339   17.1134 N   0  0  0  0  0  0  0  0  0  0  0  0
    3.7180    1.1189   19.3384 C   0  0  0  0  0  0  0  0  0  0  0  0
    6.2429   -4.1689   16.6941 N   0  0  0  0  0  0  0  0  0  0  0  0
    3.8175    0.7398   17.9783 C   0  0  0  0  0  0  0  0  0  0  0  0
    3.2516    1.5650   16.9702 C   0  0  0  0  0  0  0  0  0  0  0  0
    2.5880    2.7722   17.3225 C   0  0  0  0  0  0  0  0  0  0  0  0
    2.4746    3.1444   18.6957 C   0  0  0  0  0  0  0  0  0  0  0  0
    3.0457    2.3160   19.7003 C   0  0  0  0  0  0  0  0  0  0  0  0
    5.3136   -5.0021   17.3575 C   0  0  0  0  0  0  0  0  0  0  0  0
    4.3128   -4.2347   17.9957 C   0  0  0  0  0  0  0  0  0  0  0  0
    3.9536   -1.6995   18.0829 C   0  0  0  0  0  0  0  0  0  0  0  0
    4.4720   -0.4526   17.6388 C   0  0  0  0  0  0  0  0  0  0  0  0
    5.6508   -0.4176   16.8442 C   0  0  0  0  0  0  0  0  0  0  0  0
    6.3081   -1.6277   16.4930 C   0  0  0  0  0  0  0  0  0  0  0  0
    5.7763   -2.8813   16.9296 C   0  0  0  0  0  0  0  0  0  0  0  0
    4.6105   -2.9179   17.7163 C   0  0  0  0  0  0  0  0  0  0  0  0
    7.0322   -4.4387   16.1781 H   0  0  0  0  0  0  0  0  0  0  0  0
    0.0592    6.5483   16.9693 H   0  0  0  0  0  0  0  0  0  0  0  0
    1.0458    6.8616   18.2940 H   0  0  0  0  0  0  0  0  0  0  0  0
    0.1959    4.3843   16.9539 H   0  0  0  0  0  0  0  0  0  0  0  0
   -5.6239    4.3367   17.5836 H   0  0  0  0  0  0  0  0  0  0  0  0
  1  6  1  0
  1 32  1  0
  1 33  1  0
  2  4  1  0
  2  6  1  0
  3  7  1  0
  3 20  1  0
  4  5  1  0
  5 21  1  0
  7  8  1  0
  7 34  1  0
  8  9  1  0
  9 10  1  0
 10 11  1  0
 10 12  1  0
 11 13  1  0
 12 14  1  0
 13 15  1  0
 14 15  1  0
 15 35  1  0
 16 18  2  0
 16 22  1  0
 17 23  1  0
 17 29  1  0
 17 31  1  0
 18 19  1  0
 18 26  1  0
 19 20  2  0
 20 21  1  0
 21 22  2  0
 23 24  2  0
 24 30  1  0
 25 26  2  0
 25 30  1  0
 26 27  1  0
 27 28  2  0
 28 29  1  0
 29 30  2  0
M  END
>  <CHROM.0>  (18) 
60.78099723,-84.19158863,52.08841464

>  <CHROM.1>  (18) 
179.36458626,67.23198268,-59.12952298,-152.71952426,112.11691203,-175.17696707
113.71119257,145.16459183,80.28399974,-78.91480236,63.36490597,1.34621258
1.90366401,17.35654566,-2.53418962,0.45373690,-2.65077248

>  <Name>  (18) 
1uts_h

>  <RI>  (18) 
3.0543e+07

>  <Rbt.Current_Directory>  (18) 
/home/jta30/NA_complexes/1uts

>  <Rbt.Executable>  (18) 
rbdock ($Id: //depot/dev/client3/rdock/2013.1/src/exe/rbdock.cxx#4 $)

>  <Rbt.Library>  (18) 
libRbt.so (2013.1, Build901 2013/11/27)

>  <Rbt.Parameter_File>  (18) 
/software/dev_tools/swtree/cs400_centos7.2_pe2016-08/rdock/2013.1/centos7.2_conda/build/data/scripts/dock.prm

>  <Rbt.Receptor>  (18) 
1uts.prm

>  <SCORE>  (18) 
-5.83976

>  <SCORE.INTER>  (18) 
-5.20095

>  <SCORE.INTER.CONST>  (18) 
1

>  <SCORE.INTER.POLAR>  (18) 
-0.873194

>  <SCORE.INTER.REPUL>  (18) 
0.0132187

>  <SCORE.INTER.ROT>  (18) 
11

>  <SCORE.INTER.VDW>  (18) 
-18.6982

>  <SCORE.INTER.norm>  (18) 
-0.173365

>  <SCORE.INTRA>  (18) 
-7.16173

>  <SCORE.INTRA.DIHEDRAL>  (18) 
-3.83811

>  <SCORE.INTRA.DIHEDRAL.0>  (18) 
14.7121

>  <SCORE.INTRA.POLAR>  (18) 
-1

>  <SCORE.INTRA.POLAR.0>  (18) 
0

>  <SCORE.INTRA.REPUL>  (18) 
0.0699576

>  <SCORE.INTRA.REPUL.0>  (18) 
0

>  <SCORE.INTRA.VDW>  (18) 
-2.19246

>  <SCORE.INTRA.VDW.0>  (18) 
-0.649219

>  <SCORE.INTRA.norm>  (18) 
-0.238724

>  <SCORE.RESTR>  (18) 
0.00335296

>  <SCORE.RESTR.CAVITY>  (18) 
0.00335296

>  <SCORE.RESTR.norm>  (18) 
0.000111765

>  <SCORE.SYSTEM>  (18) 
6.51957

>  <SCORE.SYSTEM.CONST>  (18) 
0

>  <SCORE.SYSTEM.DIHEDRAL>  (18) 
3.01458

>  <SCORE.SYSTEM.POLAR>  (18) 
-0.851228

>  <SCORE.SYSTEM.REPUL>  (18) 
1.15573

>  <SCORE.SYSTEM.VDW>  (18) 
2.12781

>  <SCORE.SYSTEM.norm>  (18) 
0.217319

>  <SCORE.heavy>  (18) 
30

>  <SCORE.norm>  (18) 
-0.194659

>  <pdb_header>  (18) 
CRYST1    1.000    1.000    1.000  90.00  90.00  90.00 P 1           1

>  <Predicted_Rank>  (18) 
19.0

$$$$
1uts_h
     RDKit          3D

 35 38  0  0  0  0  0  0  0  0999 V2000
    6.0132    5.7992   18.6887 N   0  0  0  0  0  0  0  0  0  0  0  0
    3.6210    5.9906   19.2158 C   0  0  0  0  0  0  0  0  0  0  0  0
    2.5480    3.1032   15.9012 C   0  0  0  0  0  0  0  0  0  0  0  0
    2.2235    5.8942   18.5971 C   0  0  0  0  0  0  0  0  0  0  0  0
    1.8836    4.5136   18.4013 O   0  0  0  0  0  0  0  0  0  0  0  0
    4.6533    5.4258   18.2384 C   0  0  0  0  0  0  0  0  0  0  0  0
    2.6088    1.7157   16.4142 N   0  0  0  0  0  0  0  0  0  0  0  0
    3.9652    1.4419   16.9584 C   0  0  0  0  0  0  0  0  0  0  0  0
    4.0018    1.7788   18.4519 C   0  0  0  0  0  0  0  0  0  0  0  0
    5.3784    1.5969   18.9644 N   0  0  0  0  0  0  0  0  0  0  0  0
    5.5599    0.1812   19.3965 C   0  0  0  0  0  0  0  0  0  0  0  0
    5.6060    2.5234   20.1092 C   0  0  0  0  0  0  0  0  0  0  0  0
    6.9877   -0.0106   19.9331 C   0  0  0  0  0  0  0  0  0  0  0  0
    7.0342    2.3295   20.6498 C   0  0  0  0  0  0  0  0  0  0  0  0
    7.2154    0.9149   21.0790 N   0  0  0  0  0  0  0  0  0  0  0  0
   -1.4199    4.8271   16.6069 C   0  0  0  0  0  0  0  0  0  0  0  0
   -5.2951    3.8329   11.6149 N   0  0  0  0  0  0  0  0  0  0  0  0
   -1.1355    4.1728   15.3845 C   0  0  0  0  0  0  0  0  0  0  0  0
    0.1524    3.6168   15.1621 C   0  0  0  0  0  0  0  0  0  0  0  0
    1.1562    3.7126   16.1647 C   0  0  0  0  0  0  0  0  0  0  0  0
    0.8724    4.3871   17.3901 C   0  0  0  0  0  0  0  0  0  0  0  0
   -0.4197    4.9390   17.6084 C   0  0  0  0  0  0  0  0  0  0  0  0
   -6.3495    3.6354   12.5352 C   0  0  0  0  0  0  0  0  0  0  0  0
   -5.8622    3.5984   13.8615 C   0  0  0  0  0  0  0  0  0  0  0  0
   -3.4823    3.8573   14.7742 C   0  0  0  0  0  0  0  0  0  0  0  0
   -2.1298    4.0836   14.4001 C   0  0  0  0  0  0  0  0  0  0  0  0
   -1.7884    4.2261   13.0270 C   0  0  0  0  0  0  0  0  0  0  0  0
   -2.7986    4.1446   12.0308 C   0  0  0  0  0  0  0  0  0  0  0  0
   -4.1604    3.9308   12.4112 C   0  0  0  0  0  0  0  0  0  0  0  0
   -4.5000    3.7890   13.7691 C   0  0  0  0  0  0  0  0  0  0  0  0
   -5.3525    3.8951   10.6377 H   0  0  0  0  0  0  0  0  0  0  0  0
    6.1339    6.8188   18.6079 H   0  0  0  0  0  0  0  0  0  0  0  0
    6.1392    5.5163   19.6709 H   0  0  0  0  0  0  0  0  0  0  0  0
    2.4038    1.0578   15.6482 H   0  0  0  0  0  0  0  0  0  0  0  0
    8.1744    0.7867   21.4325 H   0  0  0  0  0  0  0  0  0  0  0  0
  1  6  1  0
  1 32  1  0
  1 33  1  0
  2  4  1  0
  2  6  1  0
  3  7  1  0
  3 20  1  0
  4  5  1  0
  5 21  1  0
  7  8  1  0
  7 34  1  0
  8  9  1  0
  9 10  1  0
 10 11  1  0
 10 12  1  0
 11 13  1  0
 12 14  1  0
 13 15  1  0
 14 15  1  0
 15 35  1  0
 16 18  2  0
 16 22  1  0
 17 23  1  0
 17 29  1  0
 17 31  1  0
 18 19  1  0
 18 26  1  0
 19 20  2  0
 20 21  1  0
 21 22  2  0
 23 24  2  0
 24 30  1  0
 25 26  2  0
 25 30  1  0
 26 27  1  0
 27 28  2  0
 28 29  1  0
 29 30  2  0
M  END
>  <CHROM.0>  (19) 
177.75107838,66.97244956,-163.91415619

>  <CHROM.1>  (19) 
-67.01160938,63.72933290,166.95907282,-144.24638828,-92.77630740,-157.57023347
115.54263430,91.22024775,-175.95223581,-87.86250603,-38.23383222,1.34193045
3.42985863,16.74476147,0.00836977,-0.58272264,0.26940160

>  <Name>  (19) 
1uts_h

>  <RI>  (19) 
3.0543e+07

>  <Rbt.Current_Directory>  (19) 
/home/jta30/NA_complexes/1uts

>  <Rbt.Executable>  (19) 
rbdock ($Id: //depot/dev/client3/rdock/2013.1/src/exe/rbdock.cxx#4 $)

>  <Rbt.Library>  (19) 
libRbt.so (2013.1, Build901 2013/11/27)

>  <Rbt.Parameter_File>  (19) 
/software/dev_tools/swtree/cs400_centos7.2_pe2016-08/rdock/2013.1/centos7.2_conda/build/data/scripts/dock.prm

>  <Rbt.Receptor>  (19) 
1uts.prm

>  <SCORE>  (19) 
-8.50495

>  <SCORE.INTER>  (19) 
-9.28909

>  <SCORE.INTER.CONST>  (19) 
1

>  <SCORE.INTER.POLAR>  (19) 
-0.456578

>  <SCORE.INTER.REPUL>  (19) 
0

>  <SCORE.INTER.ROT>  (19) 
11

>  <SCORE.INTER.VDW>  (19) 
-24.1367

>  <SCORE.INTER.norm>  (19) 
-0.309636

>  <SCORE.INTRA>  (19) 
-3.02654

>  <SCORE.INTRA.DIHEDRAL>  (19) 
-1.6408

>  <SCORE.INTRA.DIHEDRAL.0>  (19) 
14.7121

>  <SCORE.INTRA.POLAR>  (19) 
0

>  <SCORE.INTRA.POLAR.0>  (19) 
0

>  <SCORE.INTRA.REPUL>  (19) 
0

>  <SCORE.INTRA.REPUL.0>  (19) 
0

>  <SCORE.INTRA.VDW>  (19) 
-2.20615

>  <SCORE.INTRA.VDW.0>  (19) 
-0.649219

>  <SCORE.INTRA.norm>  (19) 
-0.100885

>  <SCORE.RESTR>  (19) 
0

>  <SCORE.RESTR.CAVITY>  (19) 
0

>  <SCORE.RESTR.norm>  (19) 
0

>  <SCORE.SYSTEM>  (19) 
3.81068

>  <SCORE.SYSTEM.CONST>  (19) 
0

>  <SCORE.SYSTEM.DIHEDRAL>  (19) 
1.66824

>  <SCORE.SYSTEM.POLAR>  (19) 
-0.186267

>  <SCORE.SYSTEM.REPUL>  (19) 
1.02325

>  <SCORE.SYSTEM.VDW>  (19) 
-1.50639

>  <SCORE.SYSTEM.norm>  (19) 
0.127023

>  <SCORE.heavy>  (19) 
30

>  <SCORE.norm>  (19) 
-0.283498

>  <pdb_header>  (19) 
CRYST1    1.000    1.000    1.000  90.00  90.00  90.00 P 1           1

>  <Predicted_Rank>  (19) 
20.0

$$$$
1uts_h
     RDKit          3D

 35 38  0  0  0  0  0  0  0  0999 V2000
    0.9610    3.8157   19.1817 N   0  0  0  0  0  0  0  0  0  0  0  0
    1.3051    4.6684   16.9031 C   0  0  0  0  0  0  0  0  0  0  0  0
   -0.6118    0.7306   15.2115 C   0  0  0  0  0  0  0  0  0  0  0  0
    1.5220    3.2649   16.3301 C   0  0  0  0  0  0  0  0  0  0  0  0
    0.9775    3.2028   15.0037 O   0  0  0  0  0  0  0  0  0  0  0  0
    1.7971    4.7115   18.3510 C   0  0  0  0  0  0  0  0  0  0  0  0
   -0.2026    0.4173   16.5995 N   0  0  0  0  0  0  0  0  0  0  0  0
    1.2654    0.1864   16.6488 C   0  0  0  0  0  0  0  0  0  0  0  0
    1.6319   -0.5412   17.9457 C   0  0  0  0  0  0  0  0  0  0  0  0
    1.3133   -1.9803   17.8099 N   0  0  0  0  0  0  0  0  0  0  0  0
    0.2765   -2.3520   18.8153 C   0  0  0  0  0  0  0  0  0  0  0  0
    2.5517   -2.7825   18.0191 C   0  0  0  0  0  0  0  0  0  0  0  0
   -0.0543   -3.8471   18.6799 C   0  0  0  0  0  0  0  0  0  0  0  0
    2.2210   -4.2801   17.8874 C   0  0  0  0  0  0  0  0  0  0  0  0
    1.1837   -4.6500   18.8902 N   0  0  0  0  0  0  0  0  0  0  0  0
   -2.4911    4.6860   15.0181 C   0  0  0  0  0  0  0  0  0  0  0  0
   -8.9023    3.8674   14.9475 N   0  0  0  0  0  0  0  0  0  0  0  0
   -3.2912    3.5213   15.0993 C   0  0  0  0  0  0  0  0  0  0  0  0
   -2.6758    2.2427   15.1613 C   0  0  0  0  0  0  0  0  0  0  0  0
   -1.2585    2.1289   15.1450 C   0  0  0  0  0  0  0  0  0  0  0  0
   -0.4539    3.3037   15.0465 C   0  0  0  0  0  0  0  0  0  0  0  0
   -1.0754    4.5812   14.9880 C   0  0  0  0  0  0  0  0  0  0  0  0
   -9.0726    3.3724   13.6346 C   0  0  0  0  0  0  0  0  0  0  0  0
   -7.8247    3.0784   13.0397 C   0  0  0  0  0  0  0  0  0  0  0  0
   -5.4446    3.2751   13.9672 C   0  0  0  0  0  0  0  0  0  0  0  0
   -4.6879    3.6413   15.1134 C   0  0  0  0  0  0  0  0  0  0  0  0
   -5.3505    4.1225   16.2760 C   0  0  0  0  0  0  0  0  0  0  0  0
   -6.7670    4.2349   16.2923 C   0  0  0  0  0  0  0  0  0  0  0  0
   -7.5264    3.8526   15.1424 C   0  0  0  0  0  0  0  0  0  0  0  0
   -6.8726    3.3768   13.9911 C   0  0  0  0  0  0  0  0  0  0  0  0
   -9.5972    4.1490   15.5797 H   0  0  0  0  0  0  0  0  0  0  0  0
    1.2673    2.8411   19.0512 H   0  0  0  0  0  0  0  0  0  0  0  0
    1.0600    4.0758   20.1733 H   0  0  0  0  0  0  0  0  0  0  0  0
   -0.6970   -0.4281   16.9200 H   0  0  0  0  0  0  0  0  0  0  0  0
    0.9590   -5.6506   18.7940 H   0  0  0  0  0  0  0  0  0  0  0  0
  1  6  1  0
  1 32  1  0
  1 33  1  0
  2  4  1  0
  2  6  1  0
  3  7  1  0
  3 20  1  0
  4  5  1  0
  5 21  1  0
  7  8  1  0
  7 34  1  0
  8  9  1  0
  9 10  1  0
 10 11  1  0
 10 12  1  0
 11 13  1  0
 12 14  1  0
 13 15  1  0
 14 15  1  0
 15 35  1  0
 16 18  2  0
 16 22  1  0
 17 23  1  0
 17 29  1  0
 17 31  1  0
 18 19  1  0
 18 26  1  0
 19 20  2  0
 20 21  1  0
 21 22  2  0
 23 24  2  0
 24 30  1  0
 25 26  2  0
 25 30  1  0
 26 27  1  0
 27 28  2  0
 28 29  1  0
 29 30  2  0
M  END
>  <CHROM.0>  (20) 
59.59753716,66.04609590,52.66334723

>  <CHROM.1>  (20) 
79.51546511,176.13020038,-64.99040869,-119.82301224,-97.81084311,-67.94231121
-90.69040674,-162.82212823,78.48628674,-117.64727534,106.96891773,-1.70652065
1.66968564,16.28286312,-0.62313593,-0.26523770,-0.20106757

>  <Name>  (20) 
1uts_h

>  <RI>  (20) 
3.0543e+07

>  <Rbt.Current_Directory>  (20) 
/home/jta30/NA_complexes/1uts

>  <Rbt.Executable>  (20) 
rbdock ($Id: //depot/dev/client3/rdock/2013.1/src/exe/rbdock.cxx#4 $)

>  <Rbt.Library>  (20) 
libRbt.so (2013.1, Build901 2013/11/27)

>  <Rbt.Parameter_File>  (20) 
/software/dev_tools/swtree/cs400_centos7.2_pe2016-08/rdock/2013.1/centos7.2_conda/build/data/scripts/dock.prm

>  <Rbt.Receptor>  (20) 
1uts.prm

>  <SCORE>  (20) 
-10.226

>  <SCORE.INTER>  (20) 
-11.2739

>  <SCORE.INTER.CONST>  (20) 
1

>  <SCORE.INTER.POLAR>  (20) 
-0.748331

>  <SCORE.INTER.REPUL>  (20) 
0.00272872

>  <SCORE.INTER.ROT>  (20) 
11

>  <SCORE.INTER.VDW>  (20) 
-25.1433

>  <SCORE.INTER.norm>  (20) 
-0.375798

>  <SCORE.INTRA>  (20) 
-1.98923

>  <SCORE.INTRA.DIHEDRAL>  (20) 
-1.10814

>  <SCORE.INTRA.DIHEDRAL.0>  (20) 
14.7121

>  <SCORE.INTRA.POLAR>  (20) 
0

>  <SCORE.INTRA.POLAR.0>  (20) 
0

>  <SCORE.INTRA.REPUL>  (20) 
0

>  <SCORE.INTRA.REPUL.0>  (20) 
0

>  <SCORE.INTRA.VDW>  (20) 
-1.43516

>  <SCORE.INTRA.VDW.0>  (20) 
-0.649219

>  <SCORE.INTRA.norm>  (20) 
-0.0663076

>  <SCORE.RESTR>  (20) 
0

>  <SCORE.RESTR.CAVITY>  (20) 
0

>  <SCORE.RESTR.norm>  (20) 
0

>  <SCORE.SYSTEM>  (20) 
3.0372

>  <SCORE.SYSTEM.CONST>  (20) 
0

>  <SCORE.SYSTEM.DIHEDRAL>  (20) 
0.675124

>  <SCORE.SYSTEM.POLAR>  (20) 
-0.0905155

>  <SCORE.SYSTEM.REPUL>  (20) 
0.789705

>  <SCORE.SYSTEM.VDW>  (20) 
-0.941128

>  <SCORE.SYSTEM.norm>  (20) 
0.10124

>  <SCORE.heavy>  (20) 
30

>  <SCORE.norm>  (20) 
-0.340865

>  <pdb_header>  (20) 
CRYST1    1.000    1.000    1.000  90.00  90.00  90.00 P 1           1

>  <Predicted_Rank>  (20) 
21.0

$$$$
1uts_h
     RDKit          3D

 35 38  0  0  0  0  0  0  0  0999 V2000
   -3.7353    3.5200   18.5713 N   0  0  0  0  0  0  0  0  0  0  0  0
   -3.4273    3.5116   16.1336 C   0  0  0  0  0  0  0  0  0  0  0  0
   -0.9707    3.8225   14.2076 C   0  0  0  0  0  0  0  0  0  0  0  0
   -3.5286    1.9893   16.0018 C   0  0  0  0  0  0  0  0  0  0  0  0
   -2.7127    1.5510   14.9055 O   0  0  0  0  0  0  0  0  0  0  0  0
   -4.3110    3.9849   17.2892 C   0  0  0  0  0  0  0  0  0  0  0  0
   -1.6571    3.4063   12.9635 N   0  0  0  0  0  0  0  0  0  0  0  0
   -2.5603    4.4937   12.5020 C   0  0  0  0  0  0  0  0  0  0  0  0
   -3.4213    3.9929   11.3386 C   0  0  0  0  0  0  0  0  0  0  0  0
   -4.3221    5.0782   10.8898 N   0  0  0  0  0  0  0  0  0  0  0  0
   -5.5154    4.4831   10.2220 C   0  0  0  0  0  0  0  0  0  0  0  0
   -3.5896    5.9704    9.9472 C   0  0  0  0  0  0  0  0  0  0  0  0
   -6.4516    5.6077    9.7509 C   0  0  0  0  0  0  0  0  0  0  0  0
   -4.5273    7.0947    9.4718 C   0  0  0  0  0  0  0  0  0  0  0  0
   -5.7199    6.4995    8.8072 N   0  0  0  0  0  0  0  0  0  0  0  0
    0.5350    0.3293   16.3859 C   0  0  0  0  0  0  0  0  0  0  0  0
    6.8294    1.3421   17.5521 N   0  0  0  0  0  0  0  0  0  0  0  0
    1.4090    1.3920   16.0540 C   0  0  0  0  0  0  0  0  0  0  0  0
    0.9146    2.5208   15.3476 C   0  0  0  0  0  0  0  0  0  0  0  0
   -0.4561    2.5882   14.9755 C   0  0  0  0  0  0  0  0  0  0  0  0
   -1.3320    1.5081   15.2968 C   0  0  0  0  0  0  0  0  0  0  0  0
   -0.8322    0.3822   16.0068 C   0  0  0  0  0  0  0  0  0  0  0  0
    7.0625    2.7290   17.4114 C   0  0  0  0  0  0  0  0  0  0  0  0
    5.8974    3.3947   16.9674 C   0  0  0  0  0  0  0  0  0  0  0  0
    3.5558    2.4950   16.4466 C   0  0  0  0  0  0  0  0  0  0  0  0
    2.7595    1.3178   16.4230 C   0  0  0  0  0  0  0  0  0  0  0  0
    3.3331    0.0667   16.7808 C   0  0  0  0  0  0  0  0  0  0  0  0
    4.6998   -0.0057   17.1636 C   0  0  0  0  0  0  0  0  0  0  0  0
    5.4946    1.1825   17.1997 C   0  0  0  0  0  0  0  0  0  0  0  0
    4.9291    2.4211   16.8454 C   0  0  0  0  0  0  0  0  0  0  0  0
    7.4629    0.6512   17.8408 H   0  0  0  0  0  0  0  0  0  0  0  0
   -4.2653    3.9285   19.3541 H   0  0  0  0  0  0  0  0  0  0  0  0
   -3.7906    2.4926   18.6197 H   0  0  0  0  0  0  0  0  0  0  0  0
   -2.2064    2.5534   13.1440 H   0  0  0  0  0  0  0  0  0  0  0  0
   -6.3490    7.2542    8.4976 H   0  0  0  0  0  0  0  0  0  0  0  0
  1  6  1  0
  1 32  1  0
  1 33  1  0
  2  4  1  0
  2  6  1  0
  3  7  1  0
  3 20  1  0
  4  5  1  0
  5 21  1  0
  7  8  1  0
  7 34  1  0
  8  9  1  0
  9 10  1  0
 10 11  1  0
 10 12  1  0
 11 13  1  0
 12 14  1  0
 13 15  1  0
 14 15  1  0
 15 35  1  0
 16 18  2  0
 16 22  1  0
 17 23  1  0
 17 29  1  0
 17 31  1  0
 18 19  1  0
 18 26  1  0
 19 20  2  0
 20 21  1  0
 21 22  2  0
 23 24  2  0
 24 30  1  0
 25 26  2  0
 25 30  1  0
 26 27  1  0
 27 28  2  0
 28 29  1  0
 29 30  2  0
M  END
>  <CHROM.0>  (21) 
58.67863560,68.64889277,50.71246386

>  <CHROM.1>  (21) 
173.44998020,179.22472604,68.68457927,159.23333523,126.22184253,78.73537976
-98.09181146,-171.75099395,179.70308365,-155.59625152,-162.18440593,-0.63673181
3.04993782,14.55254705,2.48917638,0.04850711,-1.08895241

>  <Name>  (21) 
1uts_h

>  <RI>  (21) 
3.0543e+07

>  <Rbt.Current_Directory>  (21) 
/home/jta30/NA_complexes/1uts

>  <Rbt.Executable>  (21) 
rbdock ($Id: //depot/dev/client3/rdock/2013.1/src/exe/rbdock.cxx#4 $)

>  <Rbt.Library>  (21) 
libRbt.so (2013.1, Build901 2013/11/27)

>  <Rbt.Parameter_File>  (21) 
/software/dev_tools/swtree/cs400_centos7.2_pe2016-08/rdock/2013.1/centos7.2_conda/build/data/scripts/dock.prm

>  <Rbt.Receptor>  (21) 
1uts.prm

>  <SCORE>  (21) 
-8.09239

>  <SCORE.INTER>  (21) 
-6.57318

>  <SCORE.INTER.CONST>  (21) 
1

>  <SCORE.INTER.POLAR>  (21) 
-1.05291

>  <SCORE.INTER.REPUL>  (21) 
0.634984

>  <SCORE.INTER.ROT>  (21) 
11

>  <SCORE.INTER.VDW>  (21) 
-22.5682

>  <SCORE.INTER.norm>  (21) 
-0.219106

>  <SCORE.INTRA>  (21) 
-5.23501

>  <SCORE.INTRA.DIHEDRAL>  (21) 
-5.07168

>  <SCORE.INTRA.DIHEDRAL.0>  (21) 
14.7121

>  <SCORE.INTRA.POLAR>  (21) 
-0.647676

>  <SCORE.INTRA.POLAR.0>  (21) 
0

>  <SCORE.INTRA.REPUL>  (21) 
0

>  <SCORE.INTRA.REPUL.0>  (21) 
0

>  <SCORE.INTRA.VDW>  (21) 
-0.497074

>  <SCORE.INTRA.VDW.0>  (21) 
-0.649219

>  <SCORE.INTRA.norm>  (21) 
-0.1745

>  <SCORE.RESTR>  (21) 
0.655613

>  <SCORE.RESTR.CAVITY>  (21) 
0.655613

>  <SCORE.RESTR.norm>  (21) 
0.0218538

>  <SCORE.SYSTEM>  (21) 
3.06018

>  <SCORE.SYSTEM.CONST>  (21) 
0

>  <SCORE.SYSTEM.DIHEDRAL>  (21) 
1.01339

>  <SCORE.SYSTEM.POLAR>  (21) 
-0.120936

>  <SCORE.SYSTEM.REPUL>  (21) 
0.772807

>  <SCORE.SYSTEM.VDW>  (21) 
-0.899363

>  <SCORE.SYSTEM.norm>  (21) 
0.102006

>  <SCORE.heavy>  (21) 
30

>  <SCORE.norm>  (21) 
-0.269746

>  <pdb_header>  (21) 
CRYST1    1.000    1.000    1.000  90.00  90.00  90.00 P 1           1

>  <Predicted_Rank>  (21) 
22.0

$$$$
1uts_h
     RDKit          3D

 35 38  0  0  0  0  0  0  0  0999 V2000
   -9.0021    3.9540   16.0400 N   0  0  0  0  0  0  0  0  0  0  0  0
   -7.1364    3.5114   14.5037 C   0  0  0  0  0  0  0  0  0  0  0  0
   -2.4375    2.8045   14.4046 C   0  0  0  0  0  0  0  0  0  0  0  0
   -6.0660    3.5750   15.5971 C   0  0  0  0  0  0  0  0  0  0  0  0
   -4.9082    4.2555   15.0910 O   0  0  0  0  0  0  0  0  0  0  0  0
   -8.4382    2.9655   15.0933 C   0  0  0  0  0  0  0  0  0  0  0  0
   -2.9083    3.6659   13.2963 N   0  0  0  0  0  0  0  0  0  0  0  0
   -2.0221    4.8535   13.1738 C   0  0  0  0  0  0  0  0  0  0  0  0
   -1.9197    5.2739   11.7047 C   0  0  0  0  0  0  0  0  0  0  0  0
   -3.2746    5.5466   11.1748 N   0  0  0  0  0  0  0  0  0  0  0  0
   -3.7402    4.3705   10.3850 C   0  0  0  0  0  0  0  0  0  0  0  0
   -3.2341    6.7653   10.3181 C   0  0  0  0  0  0  0  0  0  0  0  0
   -5.1459    4.6516    9.8297 C   0  0  0  0  0  0  0  0  0  0  0  0
   -4.6404    7.0457    9.7584 C   0  0  0  0  0  0  0  0  0  0  0  0
   -5.1058    5.8697    8.9718 N   0  0  0  0  0  0  0  0  0  0  0  0
   -2.9510    4.8111   18.2678 C   0  0  0  0  0  0  0  0  0  0  0  0
    2.2657    4.1320   21.9158 N   0  0  0  0  0  0  0  0  0  0  0  0
   -1.7551    4.1092   17.9839 C   0  0  0  0  0  0  0  0  0  0  0  0
   -1.5954    3.4608   16.7303 C   0  0  0  0  0  0  0  0  0  0  0  0
   -2.6317    3.5171   15.7583 C   0  0  0  0  0  0  0  0  0  0  0  0
   -3.8433    4.2116   16.0529 C   0  0  0  0  0  0  0  0  0  0  0  0
   -3.9963    4.8614   17.3083 C   0  0  0  0  0  0  0  0  0  0  0  0
    2.2400    5.5194   22.1843 C   0  0  0  0  0  0  0  0  0  0  0  0
    1.2935    6.1751   21.3647 C   0  0  0  0  0  0  0  0  0  0  0  0
   -0.3073    5.2484   19.5919 C   0  0  0  0  0  0  0  0  0  0  0  0
   -0.7384    4.0569   18.9478 C   0  0  0  0  0  0  0  0  0  0  0  0
   -0.1417    2.8117   19.2878 C   0  0  0  0  0  0  0  0  0  0  0  0
    0.8824    2.7587   20.2717 C   0  0  0  0  0  0  0  0  0  0  0  0
    1.3042    3.9573   20.9278 C   0  0  0  0  0  0  0  0  0  0  0  0
    0.7155    5.1902   20.5924 C   0  0  0  0  0  0  0  0  0  0  0  0
    2.8280    3.4475   22.3370 H   0  0  0  0  0  0  0  0  0  0  0  0
   -9.9224    3.6288   16.3686 H   0  0  0  0  0  0  0  0  0  0  0  0
   -8.3684    4.0582   16.8452 H   0  0  0  0  0  0  0  0  0  0  0  0
   -3.8735    3.9724   13.4867 H   0  0  0  0  0  0  0  0  0  0  0  0
   -6.0501    6.0574    8.6055 H   0  0  0  0  0  0  0  0  0  0  0  0
  1  6  1  0
  1 32  1  0
  1 33  1  0
  2  4  1  0
  2  6  1  0
  3  7  1  0
  3 20  1  0
  4  5  1  0
  5 21  1  0
  7  8  1  0
  7 34  1  0
  8  9  1  0
  9 10  1  0
 10 11  1  0
 10 12  1  0
 11 13  1  0
 12 14  1  0
 13 15  1  0
 14 15  1  0
 15 35  1  0
 16 18  2  0
 16 22  1  0
 17 23  1  0
 17 29  1  0
 17 31  1  0
 18 19  1  0
 18 26  1  0
 19 20  2  0
 20 21  1  0
 21 22  2  0
 23 24  2  0
 24 30  1  0
 25 26  2  0
 25 30  1  0
 26 27  1  0
 27 28  2  0
 28 29  1  0
 29 30  2  0
M  END
>  <CHROM.0>  (22) 
-40.11349104,-87.55512325,53.12127373

>  <CHROM.1>  (22) 
174.59507939,-172.11815009,68.25382257,67.41374521,-136.81940020,-174.31844572
115.71872570,146.93743416,57.14240709,-100.40746045,-48.70186688,-2.81140725
4.46946382,15.65983046,2.14847913,-0.22629719,-1.36234058

>  <Name>  (22) 
1uts_h

>  <RI>  (22) 
3.0543e+07

>  <Rbt.Current_Directory>  (22) 
/home/jta30/NA_complexes/1uts

>  <Rbt.Executable>  (22) 
rbdock ($Id: //depot/dev/client3/rdock/2013.1/src/exe/rbdock.cxx#4 $)

>  <Rbt.Library>  (22) 
libRbt.so (2013.1, Build901 2013/11/27)

>  <Rbt.Parameter_File>  (22) 
/software/dev_tools/swtree/cs400_centos7.2_pe2016-08/rdock/2013.1/centos7.2_conda/build/data/scripts/dock.prm

>  <Rbt.Receptor>  (22) 
1uts.prm

>  <SCORE>  (22) 
-3.25092

>  <SCORE.INTER>  (22) 
-4.44305

>  <SCORE.INTER.CONST>  (22) 
1

>  <SCORE.INTER.POLAR>  (22) 
-0.823981

>  <SCORE.INTER.REPUL>  (22) 
0.752443

>  <SCORE.INTER.ROT>  (22) 
11

>  <SCORE.INTER.VDW>  (22) 
-21.8037

>  <SCORE.INTER.norm>  (22) 
-0.148102

>  <SCORE.INTRA>  (22) 
-6.12628

>  <SCORE.INTRA.DIHEDRAL>  (22) 
-4.62384

>  <SCORE.INTRA.DIHEDRAL.0>  (22) 
14.7121

>  <SCORE.INTRA.POLAR>  (22) 
-0.687693

>  <SCORE.INTRA.POLAR.0>  (22) 
0

>  <SCORE.INTRA.REPUL>  (22) 
0.0166738

>  <SCORE.INTRA.REPUL.0>  (22) 
0

>  <SCORE.INTRA.VDW>  (22) 
-1.55957

>  <SCORE.INTRA.VDW.0>  (22) 
-0.649219

>  <SCORE.INTRA.norm>  (22) 
-0.204209

>  <SCORE.RESTR>  (22) 
0.0137245

>  <SCORE.RESTR.CAVITY>  (22) 
0.0137245

>  <SCORE.RESTR.norm>  (22) 
0.000457484

>  <SCORE.SYSTEM>  (22) 
7.30468

>  <SCORE.SYSTEM.CONST>  (22) 
0

>  <SCORE.SYSTEM.DIHEDRAL>  (22) 
5.29655

>  <SCORE.SYSTEM.POLAR>  (22) 
-0.97507

>  <SCORE.SYSTEM.REPUL>  (22) 
1.20541

>  <SCORE.SYSTEM.VDW>  (22) 
1.94462

>  <SCORE.SYSTEM.norm>  (22) 
0.243489

>  <SCORE.heavy>  (22) 
30

>  <SCORE.norm>  (22) 
-0.108364

>  <pdb_header>  (22) 
CRYST1    1.000    1.000    1.000  90.00  90.00  90.00 P 1           1

>  <Predicted_Rank>  (22) 
23.0

$$$$
1uts_h
     RDKit          3D

 35 38  0  0  0  0  0  0  0  0999 V2000
    2.4905    7.4841   19.3627 N   0  0  0  0  0  0  0  0  0  0  0  0
    0.5016    6.0584   19.5842 C   0  0  0  0  0  0  0  0  0  0  0  0
   -0.5145    4.4102   14.7600 C   0  0  0  0  0  0  0  0  0  0  0  0
   -0.8291    5.6997   18.9164 C   0  0  0  0  0  0  0  0  0  0  0  0
   -0.5771    5.1738   17.6050 O   0  0  0  0  0  0  0  0  0  0  0  0
    1.0915    7.3008   18.9145 C   0  0  0  0  0  0  0  0  0  0  0  0
    0.3897    3.3924   15.3418 N   0  0  0  0  0  0  0  0  0  0  0  0
    1.6116    4.0527   15.8728 C   0  0  0  0  0  0  0  0  0  0  0  0
    2.1926    3.2212   17.0201 C   0  0  0  0  0  0  0  0  0  0  0  0
    2.5542    1.8760   16.5196 N   0  0  0  0  0  0  0  0  0  0  0  0
    1.3756    0.9709   16.6445 C   0  0  0  0  0  0  0  0  0  0  0  0
    3.7021    1.3470   17.3092 C   0  0  0  0  0  0  0  0  0  0  0  0
    1.7486   -0.4285   16.1290 C   0  0  0  0  0  0  0  0  0  0  0  0
    4.0741   -0.0559   16.7964 C   0  0  0  0  0  0  0  0  0  0  0  0
    2.8958   -0.9586   16.9192 N   0  0  0  0  0  0  0  0  0  0  0  0
   -4.2639    4.6289   17.0201 C   0  0  0  0  0  0  0  0  0  0  0  0
   -9.2966    3.2581   13.3229 N   0  0  0  0  0  0  0  0  0  0  0  0
   -4.2787    4.2753   15.6497 C   0  0  0  0  0  0  0  0  0  0  0  0
   -3.0602    4.2068   14.9231 C   0  0  0  0  0  0  0  0  0  0  0  0
   -1.8251    4.4892   15.5686 C   0  0  0  0  0  0  0  0  0  0  0  0
   -1.8140    4.8614   16.9465 C   0  0  0  0  0  0  0  0  0  0  0  0
   -3.0366    4.9254   17.6695 C   0  0  0  0  0  0  0  0  0  0  0  0
  -10.0727    3.4557   14.4875 C   0  0  0  0  0  0  0  0  0  0  0  0
   -9.2516    3.7666   15.5951 C   0  0  0  0  0  0  0  0  0  0  0  0
   -6.7097    4.0376   15.7659 C   0  0  0  0  0  0  0  0  0  0  0  0
   -5.5005    3.9997   15.0197 C   0  0  0  0  0  0  0  0  0  0  0  0
   -5.5330    3.6887   13.6324 C   0  0  0  0  0  0  0  0  0  0  0  0
   -6.7731    3.4185   12.9930 C   0  0  0  0  0  0  0  0  0  0  0  0
   -7.9893    3.4711   13.7433 C   0  0  0  0  0  0  0  0  0  0  0  0
   -7.9590    3.7780   15.1160 C   0  0  0  0  0  0  0  0  0  0  0  0
   -9.6101    3.0308   12.4217 H   0  0  0  0  0  0  0  0  0  0  0  0
    3.0951    6.7965   18.8913 H   0  0  0  0  0  0  0  0  0  0  0  0
    2.8049    8.4358   19.1256 H   0  0  0  0  0  0  0  0  0  0  0  0
    0.6526    2.7116   14.6143 H   0  0  0  0  0  0  0  0  0  0  0  0
    3.1457   -1.8941   16.5678 H   0  0  0  0  0  0  0  0  0  0  0  0
  1  6  1  0
  1 32  1  0
  1 33  1  0
  2  4  1  0
  2  6  1  0
  3  7  1  0
  3 20  1  0
  4  5  1  0
  5 21  1  0
  7  8  1  0
  7 34  1  0
  8  9  1  0
  9 10  1  0
 10 11  1  0
 10 12  1  0
 11 13  1  0
 12 14  1  0
 13 15  1  0
 14 15  1  0
 15 35  1  0
 16 18  2  0
 16 22  1  0
 17 23  1  0
 17 29  1  0
 17 31  1  0
 18 19  1  0
 18 26  1  0
 19 20  2  0
 20 21  1  0
 21 22  2  0
 23 24  2  0
 24 30  1  0
 25 26  2  0
 25 30  1  0
 26 27  1  0
 27 28  2  0
 28 29  1  0
 29 30  2  0
M  END
>  <CHROM.0>  (23) 
63.04037595,-82.44475953,-49.27670021

>  <CHROM.1>  (23) 
75.25078501,71.57175412,-168.49028436,-114.86371492,-119.44422793,-178.56432398
171.78416031,152.42616138,60.56248291,-88.87742767,-1.85533177,-1.87882895
3.64070902,16.24251408,0.03912354,-0.28547364,0.48079472

>  <Name>  (23) 
1uts_h

>  <RI>  (23) 
3.0543e+07

>  <Rbt.Current_Directory>  (23) 
/home/jta30/NA_complexes/1uts

>  <Rbt.Executable>  (23) 
rbdock ($Id: //depot/dev/client3/rdock/2013.1/src/exe/rbdock.cxx#4 $)

>  <Rbt.Library>  (23) 
libRbt.so (2013.1, Build901 2013/11/27)

>  <Rbt.Parameter_File>  (23) 
/software/dev_tools/swtree/cs400_centos7.2_pe2016-08/rdock/2013.1/centos7.2_conda/build/data/scripts/dock.prm

>  <Rbt.Receptor>  (23) 
1uts.prm

>  <SCORE>  (23) 
-16.6984

>  <SCORE.INTER>  (23) 
-21.6801

>  <SCORE.INTER.CONST>  (23) 
1

>  <SCORE.INTER.POLAR>  (23) 
-1.56931

>  <SCORE.INTER.REPUL>  (23) 
0

>  <SCORE.INTER.ROT>  (23) 
11

>  <SCORE.INTER.VDW>  (23) 
-32.7445

>  <SCORE.INTER.norm>  (23) 
-0.722671

>  <SCORE.INTRA>  (23) 
-0.350279

>  <SCORE.INTRA.DIHEDRAL>  (23) 
-2.71412

>  <SCORE.INTRA.DIHEDRAL.0>  (23) 
14.7121

>  <SCORE.INTRA.POLAR>  (23) 
0

>  <SCORE.INTRA.POLAR.0>  (23) 
0

>  <SCORE.INTRA.REPUL>  (23) 
0

>  <SCORE.INTRA.REPUL.0>  (23) 
0

>  <SCORE.INTRA.VDW>  (23) 
1.00678

>  <SCORE.INTRA.VDW.0>  (23) 
-0.649219

>  <SCORE.INTRA.norm>  (23) 
-0.011676

>  <SCORE.RESTR>  (23) 
0.282499

>  <SCORE.RESTR.CAVITY>  (23) 
0.282499

>  <SCORE.RESTR.norm>  (23) 
0.00941663

>  <SCORE.SYSTEM>  (23) 
5.0495

>  <SCORE.SYSTEM.CONST>  (23) 
0

>  <SCORE.SYSTEM.DIHEDRAL>  (23) 
2.99394

>  <SCORE.SYSTEM.POLAR>  (23) 
-0.845167

>  <SCORE.SYSTEM.REPUL>  (23) 
0.790018

>  <SCORE.SYSTEM.VDW>  (23) 
2.47601

>  <SCORE.SYSTEM.norm>  (23) 
0.168317

>  <SCORE.heavy>  (23) 
30

>  <SCORE.norm>  (23) 
-0.556614

>  <pdb_header>  (23) 
CRYST1    1.000    1.000    1.000  90.00  90.00  90.00 P 1           1

>  <Predicted_Rank>  (23) 
24.0

$$$$
1uts_h
     RDKit          3D

 35 38  0  0  0  0  0  0  0  0999 V2000
    0.8691    0.3130   18.9251 N   0  0  0  0  0  0  0  0  0  0  0  0
    2.3654    2.2609   18.8630 C   0  0  0  0  0  0  0  0  0  0  0  0
   -1.1821    5.2230   17.8036 C   0  0  0  0  0  0  0  0  0  0  0  0
    1.6510    2.9303   17.6854 C   0  0  0  0  0  0  0  0  0  0  0  0
    0.2460    2.6462   17.7572 O   0  0  0  0  0  0  0  0  0  0  0  0
    2.2716    0.7406   18.7211 C   0  0  0  0  0  0  0  0  0  0  0  0
    0.0504    6.0345   17.9234 N   0  0  0  0  0  0  0  0  0  0  0  0
   -0.0377    6.9046   19.1260 C   0  0  0  0  0  0  0  0  0  0  0  0
    1.0077    6.4700   20.1573 C   0  0  0  0  0  0  0  0  0  0  0  0
    2.3613    6.7927   19.6528 N   0  0  0  0  0  0  0  0  0  0  0  0
    3.0380    5.5362   19.2201 C   0  0  0  0  0  0  0  0  0  0  0  0
    3.1443    7.4603   20.7308 C   0  0  0  0  0  0  0  0  0  0  0  0
    4.4459    5.8670   18.6989 C   0  0  0  0  0  0  0  0  0  0  0  0
    4.5556    7.7887   20.2113 C   0  0  0  0  0  0  0  0  0  0  0  0
    5.2298    6.5337   19.7771 N   0  0  0  0  0  0  0  0  0  0  0  0
   -1.0324    2.7193   14.2087 C   0  0  0  0  0  0  0  0  0  0  0  0
   -4.2279    5.7431    9.4813 N   0  0  0  0  0  0  0  0  0  0  0  0
   -1.7445    3.9424   14.1949 C   0  0  0  0  0  0  0  0  0  0  0  0
   -1.7894    4.7486   15.3634 C   0  0  0  0  0  0  0  0  0  0  0  0
   -1.1187    4.3327   16.5461 C   0  0  0  0  0  0  0  0  0  0  0  0
   -0.4148    3.0911   16.5628 C   0  0  0  0  0  0  0  0  0  0  0  0
   -0.3707    2.2897   15.3892 C   0  0  0  0  0  0  0  0  0  0  0  0
   -3.5550    6.9829    9.3917 C   0  0  0  0  0  0  0  0  0  0  0  0
   -2.6662    7.1549   10.4771 C   0  0  0  0  0  0  0  0  0  0  0  0
   -2.1153    5.6104   12.4456 C   0  0  0  0  0  0  0  0  0  0  0  0
   -2.4046    4.3452   13.0254 C   0  0  0  0  0  0  0  0  0  0  0  0
   -3.3590    3.4867   12.4137 C   0  0  0  0  0  0  0  0  0  0  0  0
   -4.0207    3.8923   11.2232 C   0  0  0  0  0  0  0  0  0  0  0  0
   -3.7173    5.1598   10.6346 C   0  0  0  0  0  0  0  0  0  0  0  0
   -2.7738    6.0108   11.2388 C   0  0  0  0  0  0  0  0  0  0  0  0
   -4.8965    5.3750    8.8653 H   0  0  0  0  0  0  0  0  0  0  0  0
    0.2388    0.9461   18.4127 H   0  0  0  0  0  0  0  0  0  0  0  0
    0.7488   -0.6478   18.5740 H   0  0  0  0  0  0  0  0  0  0  0  0
    0.1597    6.6181   17.0812 H   0  0  0  0  0  0  0  0  0  0  0  0
    6.1707    6.7579   19.4226 H   0  0  0  0  0  0  0  0  0  0  0  0
  1  6  1  0
  1 32  1  0
  1 33  1  0
  2  4  1  0
  2  6  1  0
  3  7  1  0
  3 20  1  0
  4  5  1  0
  5 21  1  0
  7  8  1  0
  7 34  1  0
  8  9  1  0
  9 10  1  0
 10 11  1  0
 10 12  1  0
 11 13  1  0
 12 14  1  0
 13 15  1  0
 14 15  1  0
 15 35  1  0
 16 18  2  0
 16 22  1  0
 17 23  1  0
 17 29  1  0
 17 31  1  0
 18 19  1  0
 18 26  1  0
 19 20  2  0
 20 21  1  0
 21 22  2  0
 23 24  2  0
 24 30  1  0
 25 26  2  0
 25 30  1  0
 26 27  1  0
 27 28  2  0
 28 29  1  0
 29 30  2  0
M  END
>  <CHROM.0>  (24) 
54.18183640,161.91669161,-55.76863981

>  <CHROM.1>  (24) 
44.13727907,65.89870193,-68.83798729,178.96435622,-99.08349531,-171.39681668
-99.54315684,113.49213108,69.22459551,-105.87979878,-124.25237593,-0.02191878
4.75942602,16.14514855,0.18478980,0.92612678,2.89954320

>  <Name>  (24) 
1uts_h

>  <RI>  (24) 
3.0543e+07

>  <Rbt.Current_Directory>  (24) 
/home/jta30/NA_complexes/1uts

>  <Rbt.Executable>  (24) 
rbdock ($Id: //depot/dev/client3/rdock/2013.1/src/exe/rbdock.cxx#4 $)

>  <Rbt.Library>  (24) 
libRbt.so (2013.1, Build901 2013/11/27)

>  <Rbt.Parameter_File>  (24) 
/software/dev_tools/swtree/cs400_centos7.2_pe2016-08/rdock/2013.1/centos7.2_conda/build/data/scripts/dock.prm

>  <Rbt.Receptor>  (24) 
1uts.prm

>  <SCORE>  (24) 
-10.8691

>  <SCORE.INTER>  (24) 
-6.21046

>  <SCORE.INTER.CONST>  (24) 
1

>  <SCORE.INTER.POLAR>  (24) 
-0.894427

>  <SCORE.INTER.REPUL>  (24) 
0

>  <SCORE.INTER.ROT>  (24) 
11

>  <SCORE.INTER.VDW>  (24) 
-19.5694

>  <SCORE.INTER.norm>  (24) 
-0.207015

>  <SCORE.INTRA>  (24) 
-6.16181

>  <SCORE.INTRA.DIHEDRAL>  (24) 
-2.65582

>  <SCORE.INTRA.DIHEDRAL.0>  (24) 
14.7121

>  <SCORE.INTRA.POLAR>  (24) 
-0.772099

>  <SCORE.INTRA.POLAR.0>  (24) 
0

>  <SCORE.INTRA.REPUL>  (24) 
0

>  <SCORE.INTRA.REPUL.0>  (24) 
0

>  <SCORE.INTRA.VDW>  (24) 
-2.20877

>  <SCORE.INTRA.VDW.0>  (24) 
-0.649219

>  <SCORE.INTRA.norm>  (24) 
-0.205394

>  <SCORE.RESTR>  (24) 
0.0136146

>  <SCORE.RESTR.CAVITY>  (24) 
0.0136146

>  <SCORE.RESTR.norm>  (24) 
0.000453822

>  <SCORE.SYSTEM>  (24) 
1.4896

>  <SCORE.SYSTEM.CONST>  (24) 
0

>  <SCORE.SYSTEM.DIHEDRAL>  (24) 
1.95969

>  <SCORE.SYSTEM.POLAR>  (24) 
-0.00277802

>  <SCORE.SYSTEM.REPUL>  (24) 
0.163084

>  <SCORE.SYSTEM.VDW>  (24) 
-0.296215

>  <SCORE.SYSTEM.norm>  (24) 
0.0496534

>  <SCORE.heavy>  (24) 
30

>  <SCORE.norm>  (24) 
-0.362302

>  <pdb_header>  (24) 
CRYST1    1.000    1.000    1.000  90.00  90.00  90.00 P 1           1

>  <Predicted_Rank>  (24) 
25.0

$$$$
1uts_h
     RDKit          3D

 35 38  0  0  0  0  0  0  0  0999 V2000
    4.1285    1.8344   20.2371 N   0  0  0  0  0  0  0  0  0  0  0  0
    3.2886    4.1434   20.2507 C   0  0  0  0  0  0  0  0  0  0  0  0
    2.7105    3.6235   15.9171 C   0  0  0  0  0  0  0  0  0  0  0  0
    2.1797    3.8973   19.2235 C   0  0  0  0  0  0  0  0  0  0  0  0
    2.0294    5.0611   18.3972 O   0  0  0  0  0  0  0  0  0  0  0  0
    3.5055    2.8779   21.0823 C   0  0  0  0  0  0  0  0  0  0  0  0
    2.8204    2.2064   16.3315 N   0  0  0  0  0  0  0  0  0  0  0  0
    4.2534    1.8361   16.4746 C   0  0  0  0  0  0  0  0  0  0  0  0
    4.3683    0.3825   16.9428 C   0  0  0  0  0  0  0  0  0  0  0  0
    5.7957   -0.0052   17.0001 N   0  0  0  0  0  0  0  0  0  0  0  0
    5.9325   -1.4387   16.6126 C   0  0  0  0  0  0  0  0  0  0  0  0
    6.3116    0.2118   18.3813 C   0  0  0  0  0  0  0  0  0  0  0  0
    7.4135   -1.8461   16.6747 C   0  0  0  0  0  0  0  0  0  0  0  0
    7.7936   -0.1993   18.4455 C   0  0  0  0  0  0  0  0  0  0  0  0
    7.9297   -1.6305   18.0561 N   0  0  0  0  0  0  0  0  0  0  0  0
   -1.3323    5.1328   16.6868 C   0  0  0  0  0  0  0  0  0  0  0  0
   -5.2708    3.7862   11.8296 N   0  0  0  0  0  0  0  0  0  0  0  0
   -1.0418    4.4628   15.4744 C   0  0  0  0  0  0  0  0  0  0  0  0
    0.2705    3.9766   15.2311 C   0  0  0  0  0  0  0  0  0  0  0  0
    1.2925    4.1581   16.2029 C   0  0  0  0  0  0  0  0  0  0  0  0
    1.0014    4.8483   17.4178 C   0  0  0  0  0  0  0  0  0  0  0  0
   -0.3147    5.3301   17.6571 C   0  0  0  0  0  0  0  0  0  0  0  0
   -6.2958    3.5967   12.7842 C   0  0  0  0  0  0  0  0  0  0  0  0
   -5.7773    3.6433   14.0982 C   0  0  0  0  0  0  0  0  0  0  0  0
   -3.3885    4.0329   14.9382 C   0  0  0  0  0  0  0  0  0  0  0  0
   -2.0542    4.2890   14.5203 C   0  0  0  0  0  0  0  0  0  0  0  0
   -1.7499    4.3753   13.1339 C   0  0  0  0  0  0  0  0  0  0  0  0
   -2.7788    4.2081   12.1681 C   0  0  0  0  0  0  0  0  0  0  0  0
   -4.1227    3.9644   12.5919 C   0  0  0  0  0  0  0  0  0  0  0  0
   -4.4256    3.8780   13.9631 C   0  0  0  0  0  0  0  0  0  0  0  0
   -5.3528    3.7977   10.8523 H   0  0  0  0  0  0  0  0  0  0  0  0
    3.5119    1.6251   19.4392 H   0  0  0  0  0  0  0  0  0  0  0  0
    5.0368    2.1724   19.8883 H   0  0  0  0  0  0  0  0  0  0  0  0
    2.3771    1.6062   15.6209 H   0  0  0  0  0  0  0  0  0  0  0  0
    8.9233   -1.9000   18.0925 H   0  0  0  0  0  0  0  0  0  0  0  0
  1  6  1  0
  1 32  1  0
  1 33  1  0
  2  4  1  0
  2  6  1  0
  3  7  1  0
  3 20  1  0
  4  5  1  0
  5 21  1  0
  7  8  1  0
  7 34  1  0
  8  9  1  0
  9 10  1  0
 10 11  1  0
 10 12  1  0
 11 13  1  0
 12 14  1  0
 13 15  1  0
 14 15  1  0
 15 35  1  0
 16 18  2  0
 16 22  1  0
 17 23  1  0
 17 29  1  0
 17 31  1  0
 18 19  1  0
 18 26  1  0
 19 20  2  0
 20 21  1  0
 21 22  2  0
 23 24  2  0
 24 30  1  0
 25 26  2  0
 25 30  1  0
 26 27  1  0
 27 28  2  0
 28 29  1  0
 29 30  2  0
M  END
>  <CHROM.0>  (25) 
-36.64610167,-87.58953919,-54.91898234

>  <CHROM.1>  (25) 
-59.67831748,-176.86120536,70.09093181,-161.56114956,-86.62604563,179.50162030
-82.93698231,178.35258622,176.42984351,-145.09343773,-36.42990273,1.41123204
2.71258933,16.41428369,0.09299075,-0.53619762,0.89550743

>  <Name>  (25) 
1uts_h

>  <RI>  (25) 
3.0543e+07

>  <Rbt.Current_Directory>  (25) 
/home/jta30/NA_complexes/1uts

>  <Rbt.Executable>  (25) 
rbdock ($Id: //depot/dev/client3/rdock/2013.1/src/exe/rbdock.cxx#4 $)

>  <Rbt.Library>  (25) 
libRbt.so (2013.1, Build901 2013/11/27)

>  <Rbt.Parameter_File>  (25) 
/software/dev_tools/swtree/cs400_centos7.2_pe2016-08/rdock/2013.1/centos7.2_conda/build/data/scripts/dock.prm

>  <Rbt.Receptor>  (25) 
1uts.prm

>  <SCORE>  (25) 
-8.5767

>  <SCORE.INTER>  (25) 
-8.87465

>  <SCORE.INTER.CONST>  (25) 
1

>  <SCORE.INTER.POLAR>  (25) 
0

>  <SCORE.INTER.REPUL>  (25) 
0

>  <SCORE.INTER.ROT>  (25) 
11

>  <SCORE.INTER.VDW>  (25) 
-25.2747

>  <SCORE.INTER.norm>  (25) 
-0.295822

>  <SCORE.INTRA>  (25) 
-5.24392

>  <SCORE.INTRA.DIHEDRAL>  (25) 
-6.13097

>  <SCORE.INTRA.DIHEDRAL.0>  (25) 
14.7121

>  <SCORE.INTRA.POLAR>  (25) 
0

>  <SCORE.INTRA.POLAR.0>  (25) 
0

>  <SCORE.INTRA.REPUL>  (25) 
0

>  <SCORE.INTRA.REPUL.0>  (25) 
0

>  <SCORE.INTRA.VDW>  (25) 
-2.17843

>  <SCORE.INTRA.VDW.0>  (25) 
-0.649219

>  <SCORE.INTRA.norm>  (25) 
-0.174797

>  <SCORE.RESTR>  (25) 
0

>  <SCORE.RESTR.CAVITY>  (25) 
0

>  <SCORE.RESTR.norm>  (25) 
0

>  <SCORE.SYSTEM>  (25) 
5.54187

>  <SCORE.SYSTEM.CONST>  (25) 
0

>  <SCORE.SYSTEM.DIHEDRAL>  (25) 
5.78212

>  <SCORE.SYSTEM.POLAR>  (25) 
-1.03736

>  <SCORE.SYSTEM.REPUL>  (25) 
0.867631

>  <SCORE.SYSTEM.VDW>  (25) 
1.83968

>  <SCORE.SYSTEM.norm>  (25) 
0.184729

>  <SCORE.heavy>  (25) 
30

>  <SCORE.norm>  (25) 
-0.28589

>  <pdb_header>  (25) 
CRYST1    1.000    1.000    1.000  90.00  90.00  90.00 P 1           1

>  <Predicted_Rank>  (25) 
26.0

$$$$
1uts_h
     RDKit          3D

 35 38  0  0  0  0  0  0  0  0999 V2000
    4.3283    6.7240   19.5839 N   0  0  0  0  0  0  0  0  0  0  0  0
    3.9834    5.0432   17.8252 C   0  0  0  0  0  0  0  0  0  0  0  0
    1.1556    3.2933   16.9364 C   0  0  0  0  0  0  0  0  0  0  0  0
    4.7007    4.5949   16.5486 C   0  0  0  0  0  0  0  0  0  0  0  0
    3.8174    3.7755   15.7688 O   0  0  0  0  0  0  0  0  0  0  0  0
    4.9947    5.6691   18.7874 C   0  0  0  0  0  0  0  0  0  0  0  0
    1.1389    3.9388   15.6040 N   0  0  0  0  0  0  0  0  0  0  0  0
   -0.2502    4.3431   15.2607 C   0  0  0  0  0  0  0  0  0  0  0  0
   -0.8610    3.3262   14.2919 C   0  0  0  0  0  0  0  0  0  0  0  0
   -2.1554    3.8398   13.7903 N   0  0  0  0  0  0  0  0  0  0  0  0
   -3.2649    3.2375   14.5839 C   0  0  0  0  0  0  0  0  0  0  0  0
   -2.2994    3.4925   12.3482 C   0  0  0  0  0  0  0  0  0  0  0  0
   -4.6114    3.7657   14.0631 C   0  0  0  0  0  0  0  0  0  0  0  0
   -3.6490    4.0177   11.8265 C   0  0  0  0  0  0  0  0  0  0  0  0
   -4.7565    3.4175   12.6212 N   0  0  0  0  0  0  0  0  0  0  0  0
    4.3734    0.3282   17.1965 C   0  0  0  0  0  0  0  0  0  0  0  0
    2.4293   -4.9093   20.3190 N   0  0  0  0  0  0  0  0  0  0  0  0
    3.1141    0.0652   17.7865 C   0  0  0  0  0  0  0  0  0  0  0  0
    2.0758    1.0305   17.6989 C   0  0  0  0  0  0  0  0  0  0  0  0
    2.2964    2.2591   17.0178 C   0  0  0  0  0  0  0  0  0  0  0  0
    3.5722    2.5291   16.4377 C   0  0  0  0  0  0  0  0  0  0  0  0
    4.6068    1.5577   16.5259 C   0  0  0  0  0  0  0  0  0  0  0  0
    3.0514   -5.6986   19.3252 C   0  0  0  0  0  0  0  0  0  0  0  0
    3.4870   -4.8990   18.2442 C   0  0  0  0  0  0  0  0  0  0  0  0
    3.3434   -2.3678   17.8751 C   0  0  0  0  0  0  0  0  0  0  0  0
    2.9045   -1.1478   18.4577 C   0  0  0  0  0  0  0  0  0  0  0  0
    2.2591   -1.1591   19.7248 C   0  0  0  0  0  0  0  0  0  0  0  0
    2.0555   -2.3883   20.4083 C   0  0  0  0  0  0  0  0  0  0  0  0
    2.5107   -3.6126   19.8259 C   0  0  0  0  0  0  0  0  0  0  0  0
    3.1488   -3.6033   18.5721 C   0  0  0  0  0  0  0  0  0  0  0  0
    2.0372   -5.2077   21.1671 H   0  0  0  0  0  0  0  0  0  0  0  0
    4.8641    6.8929   20.4471 H   0  0  0  0  0  0  0  0  0  0  0  0
    4.2837    7.5932   19.0332 H   0  0  0  0  0  0  0  0  0  0  0  0
    1.4912    3.2762   14.8979 H   0  0  0  0  0  0  0  0  0  0  0  0
   -5.6575    3.7772   12.2749 H   0  0  0  0  0  0  0  0  0  0  0  0
  1  6  1  0
  1 32  1  0
  1 33  1  0
  2  4  1  0
  2  6  1  0
  3  7  1  0
  3 20  1  0
  4  5  1  0
  5 21  1  0
  7  8  1  0
  7 34  1  0
  8  9  1  0
  9 10  1  0
 10 11  1  0
 10 12  1  0
 11 13  1  0
 12 14  1  0
 13 15  1  0
 14 15  1  0
 15 35  1  0
 16 18  2  0
 16 22  1  0
 17 23  1  0
 17 29  1  0
 17 31  1  0
 18 19  1  0
 18 26  1  0
 19 20  2  0
 20 21  1  0
 21 22  2  0
 23 24  2  0
 24 30  1  0
 25 26  2  0
 25 30  1  0
 26 27  1  0
 27 28  2  0
 28 29  1  0
 29 30  2  0
M  END
>  <CHROM.0>  (26) 
61.05495731,-87.58695591,-53.00315815

>  <CHROM.1>  (26) 
158.49823296,168.52224025,148.37698579,150.52899564,-141.03141675,-68.12560796
108.85804087,-101.08651316,-171.21520340,-97.64201543,-44.97278116,1.48832071
1.56623857,16.74834790,-2.23385476,0.54573087,2.86996346

>  <Name>  (26) 
1uts_h

>  <RI>  (26) 
3.0543e+07

>  <Rbt.Current_Directory>  (26) 
/home/jta30/NA_complexes/1uts

>  <Rbt.Executable>  (26) 
rbdock ($Id: //depot/dev/client3/rdock/2013.1/src/exe/rbdock.cxx#4 $)

>  <Rbt.Library>  (26) 
libRbt.so (2013.1, Build901 2013/11/27)

>  <Rbt.Parameter_File>  (26) 
/software/dev_tools/swtree/cs400_centos7.2_pe2016-08/rdock/2013.1/centos7.2_conda/build/data/scripts/dock.prm

>  <Rbt.Receptor>  (26) 
1uts.prm

>  <SCORE>  (26) 
-3.06623

>  <SCORE.INTER>  (26) 
-7.81811

>  <SCORE.INTER.CONST>  (26) 
1

>  <SCORE.INTER.POLAR>  (26) 
-0.687002

>  <SCORE.INTER.REPUL>  (26) 
0.0775176

>  <SCORE.INTER.ROT>  (26) 
11

>  <SCORE.INTER.VDW>  (26) 
-22.2699

>  <SCORE.INTER.norm>  (26) 
-0.260604

>  <SCORE.INTRA>  (26) 
0.0204711

>  <SCORE.INTRA.DIHEDRAL>  (26) 
0.821719

>  <SCORE.INTRA.DIHEDRAL.0>  (26) 
14.7121

>  <SCORE.INTRA.POLAR>  (26) 
0

>  <SCORE.INTRA.POLAR.0>  (26) 
0

>  <SCORE.INTRA.REPUL>  (26) 
0

>  <SCORE.INTRA.REPUL.0>  (26) 
0

>  <SCORE.INTRA.VDW>  (26) 
-0.390388

>  <SCORE.INTRA.VDW.0>  (26) 
-0.649219

>  <SCORE.INTRA.norm>  (26) 
0.00068237

>  <SCORE.RESTR>  (26) 
0.0159062

>  <SCORE.RESTR.CAVITY>  (26) 
0.0159062

>  <SCORE.RESTR.norm>  (26) 
0.000530208

>  <SCORE.SYSTEM>  (26) 
4.7155

>  <SCORE.SYSTEM.CONST>  (26) 
0

>  <SCORE.SYSTEM.DIHEDRAL>  (26) 
3.56542

>  <SCORE.SYSTEM.POLAR>  (26) 
-0.903997

>  <SCORE.SYSTEM.REPUL>  (26) 
0.899268

>  <SCORE.SYSTEM.VDW>  (26) 
1.51005

>  <SCORE.SYSTEM.norm>  (26) 
0.157183

>  <SCORE.heavy>  (26) 
30

>  <SCORE.norm>  (26) 
-0.102208

>  <pdb_header>  (26) 
CRYST1    1.000    1.000    1.000  90.00  90.00  90.00 P 1           1

>  <Predicted_Rank>  (26) 
27.0

$$$$
1uts_h
     RDKit          3D

 35 38  0  0  0  0  0  0  0  0999 V2000
    5.7432    2.4979   20.2883 N   0  0  0  0  0  0  0  0  0  0  0  0
    5.2952    4.8240   19.6360 C   0  0  0  0  0  0  0  0  0  0  0  0
    2.9601    3.2517   16.1647 C   0  0  0  0  0  0  0  0  0  0  0  0
    3.8498    4.5670   19.2003 C   0  0  0  0  0  0  0  0  0  0  0  0
    3.5312    5.4122   18.0849 O   0  0  0  0  0  0  0  0  0  0  0  0
    5.6557    3.8876   20.7907 C   0  0  0  0  0  0  0  0  0  0  0  0
    2.6606    1.8322   16.4600 N   0  0  0  0  0  0  0  0  0  0  0  0
    3.9189    1.1137   16.7939 C   0  0  0  0  0  0  0  0  0  0  0  0
    3.6286   -0.3779   16.9844 C   0  0  0  0  0  0  0  0  0  0  0  0
    4.8093   -1.0364   17.5872 N   0  0  0  0  0  0  0  0  0  0  0  0
    5.8394   -1.2615   16.5326 C   0  0  0  0  0  0  0  0  0  0  0  0
    4.3954   -2.3327   18.1950 C   0  0  0  0  0  0  0  0  0  0  0  0
    7.0658   -1.9489   17.1543 C   0  0  0  0  0  0  0  0  0  0  0  0
    5.6234   -3.0237   18.8146 C   0  0  0  0  0  0  0  0  0  0  0  0
    6.6528   -3.2460   17.7613 N   0  0  0  0  0  0  0  0  0  0  0  0
   -0.2049    5.8266   17.7669 C   0  0  0  0  0  0  0  0  0  0  0  0
   -5.7637    4.0088   14.9687 N   0  0  0  0  0  0  0  0  0  0  0  0
   -0.5187    4.8112   16.8322 C   0  0  0  0  0  0  0  0  0  0  0  0
    0.5118    3.9806   16.3166 C   0  0  0  0  0  0  0  0  0  0  0  0
    1.8572    4.1639   16.7387 C   0  0  0  0  0  0  0  0  0  0  0  0
    2.1738    5.1991   17.6689 C   0  0  0  0  0  0  0  0  0  0  0  0
    1.1377    6.0254   18.1840 C   0  0  0  0  0  0  0  0  0  0  0  0
   -5.4266    3.6652   13.6397 C   0  0  0  0  0  0  0  0  0  0  0  0
   -4.0277    3.7153   13.4444 C   0  0  0  0  0  0  0  0  0  0  0  0
   -2.1326    4.2760   15.0749 C   0  0  0  0  0  0  0  0  0  0  0  0
   -1.8473    4.6374   16.4196 C   0  0  0  0  0  0  0  0  0  0  0  0
   -2.9108    4.8154   17.3467 C   0  0  0  0  0  0  0  0  0  0  0  0
   -4.2566    4.6300   16.9296 C   0  0  0  0  0  0  0  0  0  0  0  0
   -4.5396    4.2528   15.5795 C   0  0  0  0  0  0  0  0  0  0  0  0
   -3.4888    4.0768   14.6608 C   0  0  0  0  0  0  0  0  0  0  0  0
   -6.6574    4.0558   15.3702 H   0  0  0  0  0  0  0  0  0  0  0  0
    6.0362    1.8738   21.0534 H   0  0  0  0  0  0  0  0  0  0  0  0
    4.8213    2.2008   19.9383 H   0  0  0  0  0  0  0  0  0  0  0  0
    2.2212    1.3961   15.6363 H   0  0  0  0  0  0  0  0  0  0  0  0
    7.4761   -3.7012   18.1808 H   0  0  0  0  0  0  0  0  0  0  0  0
  1  6  1  0
  1 32  1  0
  1 33  1  0
  2  4  1  0
  2  6  1  0
  3  7  1  0
  3 20  1  0
  4  5  1  0
  5 21  1  0
  7  8  1  0
  7 34  1  0
  8  9  1  0
  9 10  1  0
 10 11  1  0
 10 12  1  0
 11 13  1  0
 12 14  1  0
 13 15  1  0
 14 15  1  0
 15 35  1  0
 16 18  2  0
 16 22  1  0
 17 23  1  0
 17 29  1  0
 17 31  1  0
 18 19  1  0
 18 26  1  0
 19 20  2  0
 20 21  1  0
 21 22  2  0
 23 24  2  0
 24 30  1  0
 25 26  2  0
 25 30  1  0
 26 27  1  0
 27 28  2  0
 28 29  1  0
 29 30  2  0
M  END
>  <CHROM.0>  (27) 
-36.43346461,158.75626023,-56.54702717

>  <CHROM.1>  (27) 
176.92249103,-177.87935156,69.62896786,-141.43843837,-58.54657627,-179.33042496
-86.64275721,-175.27354684,-168.25379910,-78.21478653,143.43138972,1.65271924
2.60557489,17.14674877,-0.35163072,-0.43308582,0.35051700

>  <Name>  (27) 
1uts_h

>  <RI>  (27) 
3.0543e+07

>  <Rbt.Current_Directory>  (27) 
/home/jta30/NA_complexes/1uts

>  <Rbt.Executable>  (27) 
rbdock ($Id: //depot/dev/client3/rdock/2013.1/src/exe/rbdock.cxx#4 $)

>  <Rbt.Library>  (27) 
libRbt.so (2013.1, Build901 2013/11/27)

>  <Rbt.Parameter_File>  (27) 
/software/dev_tools/swtree/cs400_centos7.2_pe2016-08/rdock/2013.1/centos7.2_conda/build/data/scripts/dock.prm

>  <Rbt.Receptor>  (27) 
1uts.prm

>  <SCORE>  (27) 
-7.84475

>  <SCORE.INTER>  (27) 
-6.59185

>  <SCORE.INTER.CONST>  (27) 
1

>  <SCORE.INTER.POLAR>  (27) 
0

>  <SCORE.INTER.REPUL>  (27) 
0

>  <SCORE.INTER.ROT>  (27) 
11

>  <SCORE.INTER.VDW>  (27) 
-22.9918

>  <SCORE.INTER.norm>  (27) 
-0.219728

>  <SCORE.INTRA>  (27) 
-3.70123

>  <SCORE.INTRA.DIHEDRAL>  (27) 
-5.46366

>  <SCORE.INTRA.DIHEDRAL.0>  (27) 
14.7121

>  <SCORE.INTRA.POLAR>  (27) 
0

>  <SCORE.INTRA.POLAR.0>  (27) 
0

>  <SCORE.INTRA.REPUL>  (27) 
0

>  <SCORE.INTRA.REPUL.0>  (27) 
0

>  <SCORE.INTRA.VDW>  (27) 
-0.969398

>  <SCORE.INTRA.VDW.0>  (27) 
-0.649219

>  <SCORE.INTRA.norm>  (27) 
-0.123374

>  <SCORE.RESTR>  (27) 
0

>  <SCORE.RESTR.CAVITY>  (27) 
0

>  <SCORE.RESTR.norm>  (27) 
0

>  <SCORE.SYSTEM>  (27) 
2.44833

>  <SCORE.SYSTEM.CONST>  (27) 
0

>  <SCORE.SYSTEM.DIHEDRAL>  (27) 
4.63584

>  <SCORE.SYSTEM.POLAR>  (27) 
-0.142535

>  <SCORE.SYSTEM.REPUL>  (27) 
0.116409

>  <SCORE.SYSTEM.VDW>  (27) 
0.0329841

>  <SCORE.SYSTEM.norm>  (27) 
0.0816109

>  <SCORE.heavy>  (27) 
30

>  <SCORE.norm>  (27) 
-0.261492

>  <pdb_header>  (27) 
CRYST1    1.000    1.000    1.000  90.00  90.00  90.00 P 1           1

>  <Predicted_Rank>  (27) 
28.0

$$$$
1uts_h
     RDKit          3D

 35 38  0  0  0  0  0  0  0  0999 V2000
    4.6402    7.7810   21.0014 N   0  0  0  0  0  0  0  0  0  0  0  0
    3.2384    6.1823   19.7699 C   0  0  0  0  0  0  0  0  0  0  0  0
    2.4829    3.0460   16.1480 C   0  0  0  0  0  0  0  0  0  0  0  0
    2.1662    6.0546   18.6840 C   0  0  0  0  0  0  0  0  0  0  0  0
    1.8222    4.6715   18.5149 O   0  0  0  0  0  0  0  0  0  0  0  0
    3.5304    7.6615   20.0290 C   0  0  0  0  0  0  0  0  0  0  0  0
    2.5874    1.8918   17.0695 N   0  0  0  0  0  0  0  0  0  0  0  0
    3.4894    0.8643   16.4850 C   0  0  0  0  0  0  0  0  0  0  0  0
    3.9812   -0.0796   17.5861 C   0  0  0  0  0  0  0  0  0  0  0  0
    4.7979   -1.1568   16.9831 N   0  0  0  0  0  0  0  0  0  0  0  0
    4.7884   -2.3450   17.8841 C   0  0  0  0  0  0  0  0  0  0  0  0
    6.1911   -0.6673   16.7825 C   0  0  0  0  0  0  0  0  0  0  0  0
    5.6389   -3.4647   17.2628 C   0  0  0  0  0  0  0  0  0  0  0  0
    7.0446   -1.7889   16.1638 C   0  0  0  0  0  0  0  0  0  0  0  0
    7.0327   -2.9761   17.0631 N   0  0  0  0  0  0  0  0  0  0  0  0
   -1.4017    5.0286   16.5886 C   0  0  0  0  0  0  0  0  0  0  0  0
   -5.1717    3.8587   11.5522 N   0  0  0  0  0  0  0  0  0  0  0  0
   -1.1170    4.2711   15.4273 C   0  0  0  0  0  0  0  0  0  0  0  0
    0.1439    3.6316   15.2907 C   0  0  0  0  0  0  0  0  0  0  0  0
    1.1201    3.7473   16.3181 C   0  0  0  0  0  0  0  0  0  0  0  0
    0.8370    4.5250   17.4809 C   0  0  0  0  0  0  0  0  0  0  0  0
   -0.4280    5.1604   17.6136 C   0  0  0  0  0  0  0  0  0  0  0  0
   -6.2515    3.6820   12.4470 C   0  0  0  0  0  0  0  0  0  0  0  0
   -5.8011    3.6720   13.7866 C   0  0  0  0  0  0  0  0  0  0  0  0
   -3.4467    3.9464   14.7591 C   0  0  0  0  0  0  0  0  0  0  0  0
   -2.0839    4.1628   14.4179 C   0  0  0  0  0  0  0  0  0  0  0  0
   -1.7045    4.2762   13.0521 C   0  0  0  0  0  0  0  0  0  0  0  0
   -2.6870    4.1755   12.0303 C   0  0  0  0  0  0  0  0  0  0  0  0
   -4.0592    3.9716   12.3773 C   0  0  0  0  0  0  0  0  0  0  0  0
   -4.4364    3.8586   13.7280 C   0  0  0  0  0  0  0  0  0  0  0  0
   -5.2020    3.9007   10.5727 H   0  0  0  0  0  0  0  0  0  0  0  0
    4.8131    8.7757   21.2048 H   0  0  0  0  0  0  0  0  0  0  0  0
    4.3876    7.2924   21.8722 H   0  0  0  0  0  0  0  0  0  0  0  0
    1.6518    1.4866   17.2186 H   0  0  0  0  0  0  0  0  0  0  0  0
    7.5981   -3.7274   16.6424 H   0  0  0  0  0  0  0  0  0  0  0  0
  1  6  1  0
  1 32  1  0
  1 33  1  0
  2  4  1  0
  2  6  1  0
  3  7  1  0
  3 20  1  0
  4  5  1  0
  5 21  1  0
  7  8  1  0
  7 34  1  0
  8  9  1  0
  9 10  1  0
 10 11  1  0
 10 12  1  0
 11 13  1  0
 12 14  1  0
 13 15  1  0
 14 15  1  0
 15 35  1  0
 16 18  2  0
 16 22  1  0
 17 23  1  0
 17 29  1  0
 17 31  1  0
 18 19  1  0
 18 26  1  0
 19 20  2  0
 20 21  1  0
 21 22  2  0
 23 24  2  0
 24 30  1  0
 25 26  2  0
 25 30  1  0
 26 27  1  0
 27 28  2  0
 28 29  1  0
 29 30  2  0
M  END
>  <CHROM.0>  (28) 
-33.19864910,160.08520424,54.27009290

>  <CHROM.1>  (28) 
-177.79537345,-175.67956516,-175.62150301,151.60380948,-108.85734323,-178.81538619
119.44976077,160.78328993,175.90414344,-156.07448045,-42.53328873,1.14580362
2.85134711,16.27634319,-0.18685088,-0.55591693,0.49813640

>  <Name>  (28) 
1uts_h

>  <RI>  (28) 
3.0543e+07

>  <Rbt.Current_Directory>  (28) 
/home/jta30/NA_complexes/1uts

>  <Rbt.Executable>  (28) 
rbdock ($Id: //depot/dev/client3/rdock/2013.1/src/exe/rbdock.cxx#4 $)

>  <Rbt.Library>  (28) 
libRbt.so (2013.1, Build901 2013/11/27)

>  <Rbt.Parameter_File>  (28) 
/software/dev_tools/swtree/cs400_centos7.2_pe2016-08/rdock/2013.1/centos7.2_conda/build/data/scripts/dock.prm

>  <Rbt.Receptor>  (28) 
1uts.prm

>  <SCORE>  (28) 
-9.08142

>  <SCORE.INTER>  (28) 
-9.61743

>  <SCORE.INTER.CONST>  (28) 
1

>  <SCORE.INTER.POLAR>  (28) 
0

>  <SCORE.INTER.REPUL>  (28) 
0.0139397

>  <SCORE.INTER.ROT>  (28) 
11

>  <SCORE.INTER.VDW>  (28) 
-26.0871

>  <SCORE.INTER.norm>  (28) 
-0.320581

>  <SCORE.INTRA>  (28) 
-3.7449

>  <SCORE.INTRA.DIHEDRAL>  (28) 
-5.92949

>  <SCORE.INTRA.DIHEDRAL.0>  (28) 
14.7121

>  <SCORE.INTRA.POLAR>  (28) 
0

>  <SCORE.INTRA.POLAR.0>  (28) 
0

>  <SCORE.INTRA.REPUL>  (28) 
0.00275536

>  <SCORE.INTRA.REPUL.0>  (28) 
0

>  <SCORE.INTRA.VDW>  (28) 
-0.793934

>  <SCORE.INTRA.VDW.0>  (28) 
-0.649219

>  <SCORE.INTRA.norm>  (28) 
-0.12483

>  <SCORE.RESTR>  (28) 
0

>  <SCORE.RESTR.CAVITY>  (28) 
0

>  <SCORE.RESTR.norm>  (28) 
0

>  <SCORE.SYSTEM>  (28) 
4.28091

>  <SCORE.SYSTEM.CONST>  (28) 
0

>  <SCORE.SYSTEM.DIHEDRAL>  (28) 
5.098

>  <SCORE.SYSTEM.POLAR>  (28) 
-0.193015

>  <SCORE.SYSTEM.REPUL>  (28) 
0.483416

>  <SCORE.SYSTEM.VDW>  (28) 
-0.028917

>  <SCORE.SYSTEM.norm>  (28) 
0.142697

>  <SCORE.heavy>  (28) 
30

>  <SCORE.norm>  (28) 
-0.302714

>  <pdb_header>  (28) 
CRYST1    1.000    1.000    1.000  90.00  90.00  90.00 P 1           1

>  <Predicted_Rank>  (28) 
29.0

$$$$
1uts_h
     RDKit          3D

 35 38  0  0  0  0  0  0  0  0999 V2000
    5.6428   -1.1838   17.7654 N   0  0  0  0  0  0  0  0  0  0  0  0
    4.5012    0.9007   17.1416 C   0  0  0  0  0  0  0  0  0  0  0  0
    0.5356   -0.8854   15.4062 C   0  0  0  0  0  0  0  0  0  0  0  0
    3.3154    1.4828   16.3669 C   0  0  0  0  0  0  0  0  0  0  0  0
    2.0902    1.0588   16.9824 O   0  0  0  0  0  0  0  0  0  0  0  0
    4.4939   -0.6241   17.0183 C   0  0  0  0  0  0  0  0  0  0  0  0
    0.7188   -1.4106   16.7783 N   0  0  0  0  0  0  0  0  0  0  0  0
    0.5442   -2.8873   16.7768 C   0  0  0  0  0  0  0  0  0  0  0  0
    0.8841   -3.4503   18.1599 C   0  0  0  0  0  0  0  0  0  0  0  0
    2.3413   -3.3364   18.3936 N   0  0  0  0  0  0  0  0  0  0  0  0
    3.0512   -4.3730   17.5902 C   0  0  0  0  0  0  0  0  0  0  0  0
    2.6247   -3.5192   19.8452 C   0  0  0  0  0  0  0  0  0  0  0  0
    4.5649   -4.2603   17.8334 C   0  0  0  0  0  0  0  0  0  0  0  0
    4.1406   -3.4103   20.0894 C   0  0  0  0  0  0  0  0  0  0  0  0
    4.8491   -4.4442   19.2849 N   0  0  0  0  0  0  0  0  0  0  0  0
   -0.4865    3.3764   15.4921 C   0  0  0  0  0  0  0  0  0  0  0  0
   -5.4484    4.3747   11.4848 N   0  0  0  0  0  0  0  0  0  0  0  0
   -1.2481    2.4776   14.7076 C   0  0  0  0  0  0  0  0  0  0  0  0
   -0.9112    1.0980   14.6839 C   0  0  0  0  0  0  0  0  0  0  0  0
    0.1868    0.6161   15.4481 C   0  0  0  0  0  0  0  0  0  0  0  0
    0.9635    1.5268   16.2257 C   0  0  0  0  0  0  0  0  0  0  0  0
    0.6196    2.9062   16.2480 C   0  0  0  0  0  0  0  0  0  0  0  0
   -4.7135    4.4765   10.2817 C   0  0  0  0  0  0  0  0  0  0  0  0
   -3.3660    4.0987   10.4793 C   0  0  0  0  0  0  0  0  0  0  0  0
   -2.1536    3.2737   12.5802 C   0  0  0  0  0  0  0  0  0  0  0  0
   -2.3284    2.9603   13.9555 C   0  0  0  0  0  0  0  0  0  0  0  0
   -3.6019    3.1304   14.5650 C   0  0  0  0  0  0  0  0  0  0  0  0
   -4.6984    3.6110   13.7993 C   0  0  0  0  0  0  0  0  0  0  0  0
   -4.5228    3.9122   12.4124 C   0  0  0  0  0  0  0  0  0  0  0  0
   -3.2634    3.7451   11.8079 C   0  0  0  0  0  0  0  0  0  0  0  0
   -6.3972    4.5763   11.6297 H   0  0  0  0  0  0  0  0  0  0  0  0
    6.5194   -0.7973   17.3876 H   0  0  0  0  0  0  0  0  0  0  0  0
    5.5594   -0.9334   18.7610 H   0  0  0  0  0  0  0  0  0  0  0  0
    0.0235   -0.9805   17.4055 H   0  0  0  0  0  0  0  0  0  0  0  0
    5.8636   -4.3634   19.4444 H   0  0  0  0  0  0  0  0  0  0  0  0
  1  6  1  0
  1 32  1  0
  1 33  1  0
  2  4  1  0
  2  6  1  0
  3  7  1  0
  3 20  1  0
  4  5  1  0
  5 21  1  0
  7  8  1  0
  7 34  1  0
  8  9  1  0
  9 10  1  0
 10 11  1  0
 10 12  1  0
 11 13  1  0
 12 14  1  0
 13 15  1  0
 14 15  1  0
 15 35  1  0
 16 18  2  0
 16 22  1  0
 17 23  1  0
 17 29  1  0
 17 31  1  0
 18 19  1  0
 18 26  1  0
 19 20  2  0
 20 21  1  0
 21 22  2  0
 23 24  2  0
 24 30  1  0
 25 26  2  0
 25 30  1  0
 26 27  1  0
 27 28  2  0
 28 29  1  0
 29 30  2  0
M  END
>  <CHROM.0>  (29) 
59.22811402,-86.23583854,-53.57824687

>  <CHROM.1>  (29) 
-58.88700800,65.05732874,179.87110238,158.84399337,-131.66182177,-176.54649932
107.51935957,173.79615786,-69.92499518,-74.67559374,96.35312651,0.51553828
0.32641379,15.80934660,-0.82123493,-0.36678408,-0.40633089

>  <Name>  (29) 
1uts_h

>  <RI>  (29) 
3.0543e+07

>  <Rbt.Current_Directory>  (29) 
/home/jta30/NA_complexes/1uts

>  <Rbt.Executable>  (29) 
rbdock ($Id: //depot/dev/client3/rdock/2013.1/src/exe/rbdock.cxx#4 $)

>  <Rbt.Library>  (29) 
libRbt.so (2013.1, Build901 2013/11/27)

>  <Rbt.Parameter_File>  (29) 
/software/dev_tools/swtree/cs400_centos7.2_pe2016-08/rdock/2013.1/centos7.2_conda/build/data/scripts/dock.prm

>  <Rbt.Receptor>  (29) 
1uts.prm

>  <SCORE>  (29) 
-11.785

>  <SCORE.INTER>  (29) 
-10.4113

>  <SCORE.INTER.CONST>  (29) 
1

>  <SCORE.INTER.POLAR>  (29) 
-0.911341

>  <SCORE.INTER.REPUL>  (29) 
0

>  <SCORE.INTER.ROT>  (29) 
11

>  <SCORE.INTER.VDW>  (29) 
-23.7127

>  <SCORE.INTER.norm>  (29) 
-0.347042

>  <SCORE.INTRA>  (29) 
-6.06034

>  <SCORE.INTRA.DIHEDRAL>  (29) 
-7.04689

>  <SCORE.INTRA.DIHEDRAL.0>  (29) 
14.7121

>  <SCORE.INTRA.POLAR>  (29) 
0

>  <SCORE.INTRA.POLAR.0>  (29) 
0

>  <SCORE.INTRA.REPUL>  (29) 
0

>  <SCORE.INTRA.REPUL.0>  (29) 
0

>  <SCORE.INTRA.VDW>  (29) 
-2.53689

>  <SCORE.INTRA.VDW.0>  (29) 
-0.649219

>  <SCORE.INTRA.norm>  (29) 
-0.202011

>  <SCORE.RESTR>  (29) 
0

>  <SCORE.RESTR.CAVITY>  (29) 
0

>  <SCORE.RESTR.norm>  (29) 
0

>  <SCORE.SYSTEM>  (29) 
4.6866

>  <SCORE.SYSTEM.CONST>  (29) 
0

>  <SCORE.SYSTEM.DIHEDRAL>  (29) 
3.28044

>  <SCORE.SYSTEM.POLAR>  (29) 
-0.885758

>  <SCORE.SYSTEM.REPUL>  (29) 
0.867849

>  <SCORE.SYSTEM.VDW>  (29) 
1.71871

>  <SCORE.SYSTEM.norm>  (29) 
0.15622

>  <SCORE.heavy>  (29) 
30

>  <SCORE.norm>  (29) 
-0.392833

>  <pdb_header>  (29) 
CRYST1    1.000    1.000    1.000  90.00  90.00  90.00 P 1           1

>  <Predicted_Rank>  (29) 
30.0

$$$$
1uts_h
     RDKit          3D

 35 38  0  0  0  0  0  0  0  0999 V2000
    4.4398    5.8483   21.7413 N   0  0  0  0  0  0  0  0  0  0  0  0
    3.2354    6.6118   19.7403 C   0  0  0  0  0  0  0  0  0  0  0  0
    2.7320    4.1266   15.7792 C   0  0  0  0  0  0  0  0  0  0  0  0
    1.9894    6.3797   18.8809 C   0  0  0  0  0  0  0  0  0  0  0  0
    1.9385    5.0032   18.4780 O   0  0  0  0  0  0  0  0  0  0  0  0
    3.1819    5.7081   20.9735 C   0  0  0  0  0  0  0  0  0  0  0  0
    3.1748    2.8112   16.2947 N   0  0  0  0  0  0  0  0  0  0  0  0
    4.6380    2.8429   16.5573 C   0  0  0  0  0  0  0  0  0  0  0  0
    4.8978    3.3417   17.9818 C   0  0  0  0  0  0  0  0  0  0  0  0
    4.5033    2.2940   18.9502 N   0  0  0  0  0  0  0  0  0  0  0  0
    3.0263    2.3399   19.1507 C   0  0  0  0  0  0  0  0  0  0  0  0
    5.2108    2.5231   20.2416 C   0  0  0  0  0  0  0  0  0  0  0  0
    2.6132    1.2554   20.1590 C   0  0  0  0  0  0  0  0  0  0  0  0
    4.7952    1.4399   21.2533 C   0  0  0  0  0  0  0  0  0  0  0  0
    3.3196    1.4848   21.4512 N   0  0  0  0  0  0  0  0  0  0  0  0
   -1.4566    4.8667   16.8390 C   0  0  0  0  0  0  0  0  0  0  0  0
   -4.9918    3.8445   11.4988 N   0  0  0  0  0  0  0  0  0  0  0  0
   -1.1153    4.4638   15.5258 C   0  0  0  0  0  0  0  0  0  0  0  0
    0.2439    4.2261   15.1889 C   0  0  0  0  0  0  0  0  0  0  0  0
    1.2627    4.3885   16.1675 C   0  0  0  0  0  0  0  0  0  0  0  0
    0.9181    4.8106   17.4866 C   0  0  0  0  0  0  0  0  0  0  0  0
   -0.4445    5.0441   17.8189 C   0  0  0  0  0  0  0  0  0  0  0  0
   -4.1587    4.1658   10.4031 C   0  0  0  0  0  0  0  0  0  0  0  0
   -2.8531    4.4877   10.8385 C   0  0  0  0  0  0  0  0  0  0  0  0
   -1.8413    4.5341   13.1918 C   0  0  0  0  0  0  0  0  0  0  0  0
   -2.1252    4.3072   14.5660 C   0  0  0  0  0  0  0  0  0  0  0  0
   -3.4326    3.9145   14.9642 C   0  0  0  0  0  0  0  0  0  0  0  0
   -4.4529    3.7471   13.9893 C   0  0  0  0  0  0  0  0  0  0  0  0
   -4.1606    3.9626   12.6062 C   0  0  0  0  0  0  0  0  0  0  0  0
   -2.8678    4.3517   12.2103 C   0  0  0  0  0  0  0  0  0  0  0  0
   -5.9384    3.5882   11.4807 H   0  0  0  0  0  0  0  0  0  0  0  0
    5.2402    5.6228   21.1336 H   0  0  0  0  0  0  0  0  0  0  0  0
    4.5292    6.8170   22.0796 H   0  0  0  0  0  0  0  0  0  0  0  0
    2.9638    2.0816   15.5984 H   0  0  0  0  0  0  0  0  0  0  0  0
    3.0440    0.7537   22.1224 H   0  0  0  0  0  0  0  0  0  0  0  0
  1  6  1  0
  1 32  1  0
  1 33  1  0
  2  4  1  0
  2  6  1  0
  3  7  1  0
  3 20  1  0
  4  5  1  0
  5 21  1  0
  7  8  1  0
  7 34  1  0
  8  9  1  0
  9 10  1  0
 10 11  1  0
 10 12  1  0
 11 13  1  0
 12 14  1  0
 13 15  1  0
 14 15  1  0
 15 35  1  0
 16 18  2  0
 16 22  1  0
 17 23  1  0
 17 29  1  0
 17 31  1  0
 18 19  1  0
 18 26  1  0
 19 20  2  0
 20 21  1  0
 21 22  2  0
 23 24  2  0
 24 30  1  0
 25 26  2  0
 25 30  1  0
 26 27  1  0
 27 28  2  0
 28 29  1  0
 29 30  2  0
M  END
>  <CHROM.0>  (30) 
61.27425928,68.54501280,-162.70293822

>  <CHROM.1>  (30) 
-56.99505700,-59.40303866,175.15803110,-151.03098627,-102.85395809,-169.91712783
116.32376448,88.14663697,71.99300051,-80.76826567,150.09725812,0.94771409
3.94498161,16.88991490,0.45754157,-0.66634983,0.77289184

>  <Name>  (30) 
1uts_h

>  <RI>  (30) 
3.0543e+07

>  <Rbt.Current_Directory>  (30) 
/home/jta30/NA_complexes/1uts

>  <Rbt.Executable>  (30) 
rbdock ($Id: //depot/dev/client3/rdock/2013.1/src/exe/rbdock.cxx#4 $)

>  <Rbt.Library>  (30) 
libRbt.so (2013.1, Build901 2013/11/27)

>  <Rbt.Parameter_File>  (30) 
/software/dev_tools/swtree/cs400_centos7.2_pe2016-08/rdock/2013.1/centos7.2_conda/build/data/scripts/dock.prm

>  <Rbt.Receptor>  (30) 
1uts.prm

>  <SCORE>  (30) 
-8.11265

>  <SCORE.INTER>  (30) 
-7.7001

>  <SCORE.INTER.CONST>  (30) 
1

>  <SCORE.INTER.POLAR>  (30) 
0

>  <SCORE.INTER.REPUL>  (30) 
0

>  <SCORE.INTER.ROT>  (30) 
11

>  <SCORE.INTER.VDW>  (30) 
-24.1001

>  <SCORE.INTER.norm>  (30) 
-0.25667

>  <SCORE.INTRA>  (30) 
-4.47611

>  <SCORE.INTRA.DIHEDRAL>  (30) 
-4.59297

>  <SCORE.INTRA.DIHEDRAL.0>  (30) 
14.7121

>  <SCORE.INTRA.POLAR>  (30) 
0

>  <SCORE.INTRA.POLAR.0>  (30) 
0

>  <SCORE.INTRA.REPUL>  (30) 
0

>  <SCORE.INTRA.REPUL.0>  (30) 
0

>  <SCORE.INTRA.VDW>  (30) 
-2.17962

>  <SCORE.INTRA.VDW.0>  (30) 
-0.649219

>  <SCORE.INTRA.norm>  (30) 
-0.149204

>  <SCORE.RESTR>  (30) 
0

>  <SCORE.RESTR.CAVITY>  (30) 
0

>  <SCORE.RESTR.norm>  (30) 
0

>  <SCORE.SYSTEM>  (30) 
4.06355

>  <SCORE.SYSTEM.CONST>  (30) 
0

>  <SCORE.SYSTEM.DIHEDRAL>  (30) 
1.93613

>  <SCORE.SYSTEM.POLAR>  (30) 
-0.122372

>  <SCORE.SYSTEM.REPUL>  (30) 
1.01343

>  <SCORE.SYSTEM.VDW>  (30) 
-1.55558

>  <SCORE.SYSTEM.norm>  (30) 
0.135452

>  <SCORE.heavy>  (30) 
30

>  <SCORE.norm>  (30) 
-0.270422

>  <pdb_header>  (30) 
CRYST1    1.000    1.000    1.000  90.00  90.00  90.00 P 1           1

>  <Predicted_Rank>  (30) 
31.0

$$$$
1uts_h
     RDKit          3D

 35 38  0  0  0  0  0  0  0  0999 V2000
    6.1266    5.9765   18.9139 N   0  0  0  0  0  0  0  0  0  0  0  0
    5.2464    3.7345   18.4283 C   0  0  0  0  0  0  0  0  0  0  0  0
    2.0603    0.5696   16.5566 C   0  0  0  0  0  0  0  0  0  0  0  0
    3.8883    3.9518   17.7547 C   0  0  0  0  0  0  0  0  0  0  0  0
    3.7240    2.9974   16.6955 O   0  0  0  0  0  0  0  0  0  0  0  0
    5.4577    4.7972   19.5082 C   0  0  0  0  0  0  0  0  0  0  0  0
    3.4999    0.3945   16.2588 N   0  0  0  0  0  0  0  0  0  0  0  0
    4.0735   -0.6459   17.1530 C   0  0  0  0  0  0  0  0  0  0  0  0
    5.5627   -0.8289   16.8460 C   0  0  0  0  0  0  0  0  0  0  0  0
    6.1168   -1.8940   17.7117 N   0  0  0  0  0  0  0  0  0  0  0  0
    7.5634   -1.6269   17.9562 C   0  0  0  0  0  0  0  0  0  0  0  0
    5.9371   -3.2152   17.0462 C   0  0  0  0  0  0  0  0  0  0  0  0
    8.1435   -2.7334   18.8520 C   0  0  0  0  0  0  0  0  0  0  0  0
    6.5209   -4.3237   17.9406 C   0  0  0  0  0  0  0  0  0  0  0  0
    7.9651   -4.0549   18.1863 N   0  0  0  0  0  0  0  0  0  0  0  0
    0.6299    4.4475   15.0969 C   0  0  0  0  0  0  0  0  0  0  0  0
   -5.3974    3.7953   12.9202 N   0  0  0  0  0  0  0  0  0  0  0  0
   -0.1939    3.3011   14.9955 C   0  0  0  0  0  0  0  0  0  0  0  0
    0.2759    2.0475   15.4701 C   0  0  0  0  0  0  0  0  0  0  0  0
    1.5700    1.9409   16.0495 C   0  0  0  0  0  0  0  0  0  0  0  0
    2.4055    3.0949   16.1360 C   0  0  0  0  0  0  0  0  0  0  0  0
    1.9286    4.3478   15.6621 C   0  0  0  0  0  0  0  0  0  0  0  0
   -6.0827    3.7602   14.1559 C   0  0  0  0  0  0  0  0  0  0  0  0
   -5.1784    3.6028   15.2307 C   0  0  0  0  0  0  0  0  0  0  0  0
   -2.6232    3.4171   15.2500 C   0  0  0  0  0  0  0  0  0  0  0  0
   -1.4681    3.4137   14.4216 C   0  0  0  0  0  0  0  0  0  0  0  0
   -1.6070    3.5315   13.0113 C   0  0  0  0  0  0  0  0  0  0  0  0
   -2.8986    3.6548   12.4315 C   0  0  0  0  0  0  0  0  0  0  0  0
   -4.0578    3.6719   13.2687 C   0  0  0  0  0  0  0  0  0  0  0  0
   -3.9225    3.5548   14.6642 C   0  0  0  0  0  0  0  0  0  0  0  0
   -5.7797    3.8931   12.0222 H   0  0  0  0  0  0  0  0  0  0  0  0
    5.4718    6.4621   18.2847 H   0  0  0  0  0  0  0  0  0  0  0  0
    6.4204    6.6184   19.6638 H   0  0  0  0  0  0  0  0  0  0  0  0
    3.9917    1.2877   16.4070 H   0  0  0  0  0  0  0  0  0  0  0  0
    8.3506   -4.7939   18.7916 H   0  0  0  0  0  0  0  0  0  0  0  0
  1  6  1  0
  1 32  1  0
  1 33  1  0
  2  4  1  0
  2  6  1  0
  3  7  1  0
  3 20  1  0
  4  5  1  0
  5 21  1  0
  7  8  1  0
  7 34  1  0
  8  9  1  0
  9 10  1  0
 10 11  1  0
 10 12  1  0
 11 13  1  0
 12 14  1  0
 13 15  1  0
 14 15  1  0
 15 35  1  0
 16 18  2  0
 16 22  1  0
 17 23  1  0
 17 29  1  0
 17 31  1  0
 18 19  1  0
 18 26  1  0
 19 20  2  0
 20 21  1  0
 21 22  2  0
 23 24  2  0
 24 30  1  0
 25 26  2  0
 25 30  1  0
 26 27  1  0
 27 28  2  0
 28 29  1  0
 29 30  2  0
M  END
>  <CHROM.0>  (31) 
60.68328708,158.59470777,52.52950532

>  <CHROM.1>  (31) 
70.11010772,176.98949506,-89.99609600,159.23498956,141.69372615,174.31754629
-125.83637072,179.97578464,-178.31894482,-151.08232101,-104.02421812,2.11161324
1.72734483,16.26844243,-0.37897701,-0.43909803,0.15981977

>  <Name>  (31) 
1uts_h

>  <RI>  (31) 
3.0543e+07

>  <Rbt.Current_Directory>  (31) 
/home/jta30/NA_complexes/1uts

>  <Rbt.Executable>  (31) 
rbdock ($Id: //depot/dev/client3/rdock/2013.1/src/exe/rbdock.cxx#4 $)

>  <Rbt.Library>  (31) 
libRbt.so (2013.1, Build901 2013/11/27)

>  <Rbt.Parameter_File>  (31) 
/software/dev_tools/swtree/cs400_centos7.2_pe2016-08/rdock/2013.1/centos7.2_conda/build/data/scripts/dock.prm

>  <Rbt.Receptor>  (31) 
1uts.prm

>  <SCORE>  (31) 
-12.2002

>  <SCORE.INTER>  (31) 
-9.53023

>  <SCORE.INTER.CONST>  (31) 
1

>  <SCORE.INTER.POLAR>  (31) 
-0.455331

>  <SCORE.INTER.REPUL>  (31) 
0

>  <SCORE.INTER.ROT>  (31) 
11

>  <SCORE.INTER.VDW>  (31) 
-24.3821

>  <SCORE.INTER.norm>  (31) 
-0.317674

>  <SCORE.INTRA>  (31) 
-5.83965

>  <SCORE.INTRA.DIHEDRAL>  (31) 
-3.71717

>  <SCORE.INTRA.DIHEDRAL.0>  (31) 
14.7121

>  <SCORE.INTRA.POLAR>  (31) 
-0.854272

>  <SCORE.INTRA.POLAR.0>  (31) 
0

>  <SCORE.INTRA.REPUL>  (31) 
0

>  <SCORE.INTRA.REPUL.0>  (31) 
0

>  <SCORE.INTRA.VDW>  (31) 
-1.07655

>  <SCORE.INTRA.VDW.0>  (31) 
-0.649219

>  <SCORE.INTRA.norm>  (31) 
-0.194655

>  <SCORE.RESTR>  (31) 
0

>  <SCORE.RESTR.CAVITY>  (31) 
0

>  <SCORE.RESTR.norm>  (31) 
0

>  <SCORE.SYSTEM>  (31) 
3.16967

>  <SCORE.SYSTEM.CONST>  (31) 
0

>  <SCORE.SYSTEM.DIHEDRAL>  (31) 
2.50412

>  <SCORE.SYSTEM.REPUL>  (31) 
0.450849

>  <SCORE.SYSTEM.VDW>  (31) 
-0.336636

>  <SCORE.SYSTEM.norm>  (31) 
0.105656

>  <SCORE.heavy>  (31) 
30

>  <SCORE.norm>  (31) 
-0.406674

>  <pdb_header>  (31) 
CRYST1    1.000    1.000    1.000  90.00  90.00  90.00 P 1           1

>  <Predicted_Rank>  (31) 
32.0

$$$$
1uts_h
     RDKit          3D

 35 38  0  0  0  0  0  0  0  0999 V2000
    4.8273    1.3081   20.2047 N   0  0  0  0  0  0  0  0  0  0  0  0
    5.6092    3.1805   18.8192 C   0  0  0  0  0  0  0  0  0  0  0  0
    1.9779    0.5152   17.5991 C   0  0  0  0  0  0  0  0  0  0  0  0
    4.2009    3.3676   18.2474 C   0  0  0  0  0  0  0  0  0  0  0  0
    4.0480    2.5465   17.0802 O   0  0  0  0  0  0  0  0  0  0  0  0
    5.8218    1.7103   19.1847 C   0  0  0  0  0  0  0  0  0  0  0  0
    2.5353   -0.5763   16.7685 N   0  0  0  0  0  0  0  0  0  0  0  0
    4.0190   -0.5734   16.8677 C   0  0  0  0  0  0  0  0  0  0  0  0
    4.4566   -1.3589   18.1075 C   0  0  0  0  0  0  0  0  0  0  0  0
    4.0207   -2.7674   17.9775 N   0  0  0  0  0  0  0  0  0  0  0  0
    3.6792   -3.3036   19.3264 C   0  0  0  0  0  0  0  0  0  0  0  0
    5.1157   -3.5687   17.3613 C   0  0  0  0  0  0  0  0  0  0  0  0
    3.2296   -4.7678   19.1959 C   0  0  0  0  0  0  0  0  0  0  0  0
    4.6681   -5.0359   17.2335 C   0  0  0  0  0  0  0  0  0  0  0  0
    4.3248   -5.5700   18.5808 N   0  0  0  0  0  0  0  0  0  0  0  0
    1.1890    4.0528   15.1337 C   0  0  0  0  0  0  0  0  0  0  0  0
   -4.7731    3.7965   12.7607 N   0  0  0  0  0  0  0  0  0  0  0  0
    0.1722    3.0909   15.3441 C   0  0  0  0  0  0  0  0  0  0  0  0
    0.4347    1.9467   16.1437 C   0  0  0  0  0  0  0  0  0  0  0  0
    1.7146    1.7658   16.7361 C   0  0  0  0  0  0  0  0  0  0  0  0
    2.7434    2.7287   16.5093 C   0  0  0  0  0  0  0  0  0  0  0  0
    2.4740    3.8737   15.7105 C   0  0  0  0  0  0  0  0  0  0  0  0
   -4.2686    3.9104   11.4453 C   0  0  0  0  0  0  0  0  0  0  0  0
   -2.8580    3.8214   11.4357 C   0  0  0  0  0  0  0  0  0  0  0  0
   -1.1937    3.4701   13.3516 C   0  0  0  0  0  0  0  0  0  0  0  0
   -1.0868    3.2753   14.7556 C   0  0  0  0  0  0  0  0  0  0  0  0
   -2.2591    3.2609   15.5605 C   0  0  0  0  0  0  0  0  0  0  0  0
   -3.5354    3.4388   14.9614 C   0  0  0  0  0  0  0  0  0  0  0  0
   -3.6407    3.6206   13.5469 C   0  0  0  0  0  0  0  0  0  0  0  0
   -2.4820    3.6357   12.7490 C   0  0  0  0  0  0  0  0  0  0  0  0
   -5.7094    3.8263   13.0513 H   0  0  0  0  0  0  0  0  0  0  0  0
    4.8846    0.2913   20.3582 H   0  0  0  0  0  0  0  0  0  0  0  0
    5.0242    1.7992   21.0883 H   0  0  0  0  0  0  0  0  0  0  0  0
    2.2538   -0.4381   15.7870 H   0  0  0  0  0  0  0  0  0  0  0  0
    4.0181   -6.5492   18.4907 H   0  0  0  0  0  0  0  0  0  0  0  0
  1  6  1  0
  1 32  1  0
  1 33  1  0
  2  4  1  0
  2  6  1  0
  3  7  1  0
  3 20  1  0
  4  5  1  0
  5 21  1  0
  7  8  1  0
  7 34  1  0
  8  9  1  0
  9 10  1  0
 10 11  1  0
 10 12  1  0
 11 13  1  0
 12 14  1  0
 13 15  1  0
 14 15  1  0
 15 35  1  0
 16 18  2  0
 16 22  1  0
 17 23  1  0
 17 29  1  0
 17 31  1  0
 18 19  1  0
 18 26  1  0
 19 20  2  0
 20 21  1  0
 21 22  2  0
 23 24  2  0
 24 30  1  0
 25 26  2  0
 25 30  1  0
 26 27  1  0
 27 28  2  0
 28 29  1  0
 29 30  2  0
M  END
>  <CHROM.0>  (32) 
58.43915428,-84.64318125,-53.62114718

>  <CHROM.1>  (32) 
172.37810246,-59.47082128,-60.44318270,95.77659423,91.98872067,-178.71487544
-101.23082528,84.66595802,62.18952681,-146.39503533,54.93938087,1.69523066
1.00015944,16.43661006,-0.62635473,-0.58631148,-0.04735385

>  <Name>  (32) 
1uts_h

>  <RI>  (32) 
3.0543e+07

>  <Rbt.Current_Directory>  (32) 
/home/jta30/NA_complexes/1uts

>  <Rbt.Executable>  (32) 
rbdock ($Id: //depot/dev/client3/rdock/2013.1/src/exe/rbdock.cxx#4 $)

>  <Rbt.Library>  (32) 
libRbt.so (2013.1, Build901 2013/11/27)

>  <Rbt.Parameter_File>  (32) 
/software/dev_tools/swtree/cs400_centos7.2_pe2016-08/rdock/2013.1/centos7.2_conda/build/data/scripts/dock.prm

>  <Rbt.Receptor>  (32) 
1uts.prm

>  <SCORE>  (32) 
-7.30563

>  <SCORE.INTER>  (32) 
-7.4929

>  <SCORE.INTER.CONST>  (32) 
1

>  <SCORE.INTER.POLAR>  (32) 
-0.663325

>  <SCORE.INTER.REPUL>  (32) 
0.308192

>  <SCORE.INTER.ROT>  (32) 
11

>  <SCORE.INTER.VDW>  (32) 
-23.1786

>  <SCORE.INTER.norm>  (32) 
-0.249763

>  <SCORE.INTRA>  (32) 
-4.56584

>  <SCORE.INTRA.DIHEDRAL>  (32) 
-4.72807

>  <SCORE.INTRA.DIHEDRAL.0>  (32) 
14.7121

>  <SCORE.INTRA.POLAR>  (32) 
0

>  <SCORE.INTRA.POLAR.0>  (32) 
0

>  <SCORE.INTRA.REPUL>  (32) 
0

>  <SCORE.INTRA.REPUL.0>  (32) 
0

>  <SCORE.INTRA.VDW>  (32) 
-2.2018

>  <SCORE.INTRA.VDW.0>  (32) 
-0.649219

>  <SCORE.INTRA.norm>  (32) 
-0.152195

>  <SCORE.RESTR>  (32) 
0

>  <SCORE.RESTR.CAVITY>  (32) 
0

>  <SCORE.RESTR.norm>  (32) 
0

>  <SCORE.SYSTEM>  (32) 
4.7531

>  <SCORE.SYSTEM.CONST>  (32) 
0

>  <SCORE.SYSTEM.DIHEDRAL>  (32) 
3.00097

>  <SCORE.SYSTEM.POLAR>  (32) 
-0.864456

>  <SCORE.SYSTEM.REPUL>  (32) 
0.832885

>  <SCORE.SYSTEM.VDW>  (32) 
2.02735

>  <SCORE.SYSTEM.norm>  (32) 
0.158437

>  <SCORE.heavy>  (32) 
30

>  <SCORE.norm>  (32) 
-0.243521

>  <pdb_header>  (32) 
CRYST1    1.000    1.000    1.000  90.00  90.00  90.00 P 1           1

>  <Predicted_Rank>  (32) 
33.0

$$$$
1uts_h
     RDKit          3D

 35 38  0  0  0  0  0  0  0  0999 V2000
    2.2702    2.9780   22.0686 N   0  0  0  0  0  0  0  0  0  0  0  0
    1.0194    3.8329   20.1341 C   0  0  0  0  0  0  0  0  0  0  0  0
    2.6810    3.3161   15.9067 C   0  0  0  0  0  0  0  0  0  0  0  0
    2.2476    3.8340   19.2194 C   0  0  0  0  0  0  0  0  0  0  0  0
    2.1626    4.9407   18.3095 O   0  0  0  0  0  0  0  0  0  0  0  0
    1.1412    2.6981   21.1528 C   0  0  0  0  0  0  0  0  0  0  0  0
    2.7126    1.9196   16.3974 N   0  0  0  0  0  0  0  0  0  0  0  0
    4.1226    1.4858   16.5835 C   0  0  0  0  0  0  0  0  0  0  0  0
    4.1621    0.0040   16.9682 C   0  0  0  0  0  0  0  0  0  0  0  0
    3.3134   -0.2182   18.1605 N   0  0  0  0  0  0  0  0  0  0  0  0
    4.0860    0.1322   19.3869 C   0  0  0  0  0  0  0  0  0  0  0  0
    2.8870   -1.6455   18.2044 C   0  0  0  0  0  0  0  0  0  0  0  0
    3.2090   -0.1010   20.6277 C   0  0  0  0  0  0  0  0  0  0  0  0
    2.0117   -1.8810   19.4486 C   0  0  0  0  0  0  0  0  0  0  0  0
    2.7831   -1.5286   20.6729 N   0  0  0  0  0  0  0  0  0  0  0  0
   -1.2369    5.1219   16.6841 C   0  0  0  0  0  0  0  0  0  0  0  0
   -5.3911    3.7145   12.0253 N   0  0  0  0  0  0  0  0  0  0  0  0
   -1.0237    4.3630   15.5085 C   0  0  0  0  0  0  0  0  0  0  0  0
    0.2484    3.7810   15.2625 C   0  0  0  0  0  0  0  0  0  0  0  0
    1.3077    3.9556   16.1949 C   0  0  0  0  0  0  0  0  0  0  0  0
    1.0953    4.7348   17.3717 C   0  0  0  0  0  0  0  0  0  0  0  0
   -0.1811    5.3124   17.6142 C   0  0  0  0  0  0  0  0  0  0  0  0
   -6.3786    3.5191   13.0174 C   0  0  0  0  0  0  0  0  0  0  0  0
   -5.8097    3.5562   14.3107 C   0  0  0  0  0  0  0  0  0  0  0  0
   -3.3899    3.9384   15.0605 C   0  0  0  0  0  0  0  0  0  0  0  0
   -2.0725    4.1965   14.5931 C   0  0  0  0  0  0  0  0  0  0  0  0
   -1.8218    4.2923   13.1966 C   0  0  0  0  0  0  0  0  0  0  0  0
   -2.8875    4.1324   12.2701 C   0  0  0  0  0  0  0  0  0  0  0  0
   -4.2142    3.8867   12.7439 C   0  0  0  0  0  0  0  0  0  0  0  0
   -4.4640    3.7910   14.1251 C   0  0  0  0  0  0  0  0  0  0  0  0
   -5.5108    3.7328   11.0519 H   0  0  0  0  0  0  0  0  0  0  0  0
    2.2926    2.2674   22.8136 H   0  0  0  0  0  0  0  0  0  0  0  0
    3.1546    2.9495   21.5416 H   0  0  0  0  0  0  0  0  0  0  0  0
    2.2489    1.3051   15.7125 H   0  0  0  0  0  0  0  0  0  0  0  0
    2.1920   -1.6797   21.5028 H   0  0  0  0  0  0  0  0  0  0  0  0
  1  6  1  0
  1 32  1  0
  1 33  1  0
  2  4  1  0
  2  6  1  0
  3  7  1  0
  3 20  1  0
  4  5  1  0
  5 21  1  0
  7  8  1  0
  7 34  1  0
  8  9  1  0
  9 10  1  0
 10 11  1  0
 10 12  1  0
 11 13  1  0
 12 14  1  0
 13 15  1  0
 14 15  1  0
 15 35  1  0
 16 18  2  0
 16 22  1  0
 17 23  1  0
 17 29  1  0
 17 31  1  0
 18 19  1  0
 18 26  1  0
 19 20  2  0
 20 21  1  0
 21 22  2  0
 23 24  2  0
 24 30  1  0
 25 26  2  0
 25 30  1  0
 26 27  1  0
 27 28  2  0
 28 29  1  0
 29 30  2  0
M  END
>  <CHROM.0>  (33) 
178.67633723,-87.54074609,-52.97844806

>  <CHROM.1>  (33) 
174.12615280,-177.09561722,66.56944747,-159.14610571,-86.26687566,-68.68433682
-84.10658190,-174.88871798,-54.79449083,-82.43037816,-41.73410983,0.33816345
2.63142609,16.93904666,-0.02646779,-0.77224439,0.48022711

>  <Name>  (33) 
1uts_h

>  <RI>  (33) 
3.0543e+07

>  <Rbt.Current_Directory>  (33) 
/home/jta30/NA_complexes/1uts

>  <Rbt.Executable>  (33) 
rbdock ($Id: //depot/dev/client3/rdock/2013.1/src/exe/rbdock.cxx#4 $)

>  <Rbt.Library>  (33) 
libRbt.so (2013.1, Build901 2013/11/27)

>  <Rbt.Parameter_File>  (33) 
/software/dev_tools/swtree/cs400_centos7.2_pe2016-08/rdock/2013.1/centos7.2_conda/build/data/scripts/dock.prm

>  <Rbt.Receptor>  (33) 
1uts.prm

>  <SCORE>  (33) 
-7.96617

>  <SCORE.INTER>  (33) 
-7.78735

>  <SCORE.INTER.CONST>  (33) 
1

>  <SCORE.INTER.POLAR>  (33) 
0

>  <SCORE.INTER.REPUL>  (33) 
0

>  <SCORE.INTER.ROT>  (33) 
11

>  <SCORE.INTER.VDW>  (33) 
-24.1873

>  <SCORE.INTER.norm>  (33) 
-0.259578

>  <SCORE.INTRA>  (33) 
-4.93347

>  <SCORE.INTRA.DIHEDRAL>  (33) 
-6.4155

>  <SCORE.INTRA.DIHEDRAL.0>  (33) 
14.7121

>  <SCORE.INTRA.POLAR>  (33) 
0

>  <SCORE.INTRA.POLAR.0>  (33) 
0

>  <SCORE.INTRA.REPUL>  (33) 
0

>  <SCORE.INTRA.REPUL.0>  (33) 
0

>  <SCORE.INTRA.VDW>  (33) 
-1.72572

>  <SCORE.INTRA.VDW.0>  (33) 
-0.649219

>  <SCORE.INTRA.norm>  (33) 
-0.164449

>  <SCORE.RESTR>  (33) 
0

>  <SCORE.RESTR.CAVITY>  (33) 
0

>  <SCORE.RESTR.norm>  (33) 
0

>  <SCORE.SYSTEM>  (33) 
4.75465

>  <SCORE.SYSTEM.CONST>  (33) 
0

>  <SCORE.SYSTEM.DIHEDRAL>  (33) 
3.56167

>  <SCORE.SYSTEM.POLAR>  (33) 
-0.993427

>  <SCORE.SYSTEM.REPUL>  (33) 
0.962567

>  <SCORE.SYSTEM.VDW>  (33) 
1.53863

>  <SCORE.SYSTEM.norm>  (33) 
0.158488

>  <SCORE.heavy>  (33) 
30

>  <SCORE.norm>  (33) 
-0.265539

>  <pdb_header>  (33) 
CRYST1    1.000    1.000    1.000  90.00  90.00  90.00 P 1           1

>  <Predicted_Rank>  (33) 
34.0

$$$$
1uts_h
     RDKit          3D

 35 38  0  0  0  0  0  0  0  0999 V2000
    4.8662    5.6350   16.3935 N   0  0  0  0  0  0  0  0  0  0  0  0
    3.1406    4.2323   17.4384 C   0  0  0  0  0  0  0  0  0  0  0  0
    0.7348   -0.1403   16.0037 C   0  0  0  0  0  0  0  0  0  0  0  0
    2.7453    2.7874   17.7570 C   0  0  0  0  0  0  0  0  0  0  0  0
    2.6423    2.0415   16.5352 O   0  0  0  0  0  0  0  0  0  0  0  0
    4.5387    4.2551   16.8179 C   0  0  0  0  0  0  0  0  0  0  0  0
    0.6483   -0.2819   17.4749 N   0  0  0  0  0  0  0  0  0  0  0  0
    0.8416   -1.7069   17.8531 C   0  0  0  0  0  0  0  0  0  0  0  0
    2.3370   -2.0091   17.9863 C   0  0  0  0  0  0  0  0  0  0  0  0
    2.5352   -3.4709   18.1082 N   0  0  0  0  0  0  0  0  0  0  0  0
    2.1112   -3.9136   19.4676 C   0  0  0  0  0  0  0  0  0  0  0  0
    3.9717   -3.7955   17.8801 C   0  0  0  0  0  0  0  0  0  0  0  0
    2.3192   -5.4310   19.5993 C   0  0  0  0  0  0  0  0  0  0  0  0
    4.1820   -5.3144   18.0154 C   0  0  0  0  0  0  0  0  0  0  0  0
    3.7560   -5.7562   19.3725 N   0  0  0  0  0  0  0  0  0  0  0  0
   -0.0776    3.9951   14.7981 C   0  0  0  0  0  0  0  0  0  0  0  0
   -5.6457    4.2102   11.5708 N   0  0  0  0  0  0  0  0  0  0  0  0
   -1.0123    2.9726   14.5080 C   0  0  0  0  0  0  0  0  0  0  0  0
   -0.7426    1.6346   14.9011 C   0  0  0  0  0  0  0  0  0  0  0  0
    0.4619    1.3194   15.5878 C   0  0  0  0  0  0  0  0  0  0  0  0
    1.4105    2.3492   15.8649 C   0  0  0  0  0  0  0  0  0  0  0  0
    1.1337    3.6873   15.4718 C   0  0  0  0  0  0  0  0  0  0  0  0
   -5.0286    4.3066   10.3029 C   0  0  0  0  0  0  0  0  0  0  0  0
   -3.6364    4.0831   10.4004 C   0  0  0  0  0  0  0  0  0  0  0  0
   -2.1719    3.5284   12.4281 C   0  0  0  0  0  0  0  0  0  0  0  0
   -2.1971    3.2908   13.8293 C   0  0  0  0  0  0  0  0  0  0  0  0
   -3.4265    3.3696   14.5396 C   0  0  0  0  0  0  0  0  0  0  0  0
   -4.6282    3.6831   13.8488 C   0  0  0  0  0  0  0  0  0  0  0  0
   -4.6018    3.9079   12.4368 C   0  0  0  0  0  0  0  0  0  0  0  0
   -3.3864    3.8310   11.7325 C   0  0  0  0  0  0  0  0  0  0  0  0
   -6.5955    4.3226   11.7883 H   0  0  0  0  0  0  0  0  0  0  0  0
    4.9480    6.2394   17.2234 H   0  0  0  0  0  0  0  0  0  0  0  0
    5.7600    5.6336   15.8817 H   0  0  0  0  0  0  0  0  0  0  0  0
   -0.2765    0.0392   17.7963 H   0  0  0  0  0  0  0  0  0  0  0  0
    3.8904   -6.7739   19.4568 H   0  0  0  0  0  0  0  0  0  0  0  0
  1  6  1  0
  1 32  1  0
  1 33  1  0
  2  4  1  0
  2  6  1  0
  3  7  1  0
  3 20  1  0
  4  5  1  0
  5 21  1  0
  7  8  1  0
  7 34  1  0
  8  9  1  0
  9 10  1  0
 10 11  1  0
 10 12  1  0
 11 13  1  0
 12 14  1  0
 13 15  1  0
 14 15  1  0
 15 35  1  0
 16 18  2  0
 16 22  1  0
 17 23  1  0
 17 29  1  0
 17 31  1  0
 18 19  1  0
 18 26  1  0
 19 20  2  0
 20 21  1  0
 21 22  2  0
 23 24  2  0
 24 30  1  0
 25 26  2  0
 25 30  1  0
 26 27  1  0
 27 28  2  0
 28 29  1  0
 29 30  2  0
M  END
>  <CHROM.0>  (34) 
-52.43033674,84.04369260,-54.64052877

>  <CHROM.1>  (34) 
66.36726163,-64.48804763,174.67567505,176.98692839,-110.11570959,-77.38899858
-120.62862358,85.75113564,-169.37772484,-73.70818501,76.39703287,0.44765313
1.11167515,15.78731021,-2.26923276,0.51550554,2.85169929

>  <Name>  (34) 
1uts_h

>  <RI>  (34) 
3.0543e+07

>  <Rbt.Current_Directory>  (34) 
/home/jta30/NA_complexes/1uts

>  <Rbt.Executable>  (34) 
rbdock ($Id: //depot/dev/client3/rdock/2013.1/src/exe/rbdock.cxx#4 $)

>  <Rbt.Library>  (34) 
libRbt.so (2013.1, Build901 2013/11/27)

>  <Rbt.Parameter_File>  (34) 
/software/dev_tools/swtree/cs400_centos7.2_pe2016-08/rdock/2013.1/centos7.2_conda/build/data/scripts/dock.prm

>  <Rbt.Receptor>  (34) 
1uts.prm

>  <SCORE>  (34) 
-9.77576

>  <SCORE.INTER>  (34) 
-13.5024

>  <SCORE.INTER.CONST>  (34) 
1

>  <SCORE.INTER.POLAR>  (34) 
-0.932171

>  <SCORE.INTER.REPUL>  (34) 
0

>  <SCORE.INTER.ROT>  (34) 
11

>  <SCORE.INTER.VDW>  (34) 
-26.7331

>  <SCORE.INTER.norm>  (34) 
-0.450082

>  <SCORE.INTRA>  (34) 
-2.17897

>  <SCORE.INTRA.DIHEDRAL>  (34) 
-5.28018

>  <SCORE.INTRA.DIHEDRAL.0>  (34) 
14.7121

>  <SCORE.INTRA.POLAR>  (34) 
0

>  <SCORE.INTRA.POLAR.0>  (34) 
0

>  <SCORE.INTRA.REPUL>  (34) 
0

>  <SCORE.INTRA.REPUL.0>  (34) 
0

>  <SCORE.INTRA.VDW>  (34) 
0.461114

>  <SCORE.INTRA.VDW.0>  (34) 
-0.649219

>  <SCORE.INTRA.norm>  (34) 
-0.0726325

>  <SCORE.RESTR>  (34) 
0

>  <SCORE.RESTR.CAVITY>  (34) 
0

>  <SCORE.RESTR.norm>  (34) 
0

>  <SCORE.SYSTEM>  (34) 
5.90566

>  <SCORE.SYSTEM.CONST>  (34) 
0

>  <SCORE.SYSTEM.DIHEDRAL>  (34) 
3.10104

>  <SCORE.SYSTEM.POLAR>  (34) 
-0.0911905

>  <SCORE.SYSTEM.REPUL>  (34) 
0.452079

>  <SCORE.SYSTEM.VDW>  (34) 
2.4048

>  <SCORE.SYSTEM.norm>  (34) 
0.196855

>  <SCORE.heavy>  (34) 
30

>  <SCORE.norm>  (34) 
-0.325859

>  <pdb_header>  (34) 
CRYST1    1.000    1.000    1.000  90.00  90.00  90.00 P 1           1

>  <Predicted_Rank>  (34) 
35.0

$$$$
1uts_h
     RDKit          3D

 35 38  0  0  0  0  0  0  0  0999 V2000
    2.4589   -1.8374   20.3824 N   0  0  0  0  0  0  0  0  0  0  0  0
    1.0096   -0.2531   19.1879 C   0  0  0  0  0  0  0  0  0  0  0  0
    0.3162    4.1334   17.6079 C   0  0  0  0  0  0  0  0  0  0  0  0
    0.6992    0.3527   17.8160 C   0  0  0  0  0  0  0  0  0  0  0  0
   -0.3801    1.2901   17.9427 O   0  0  0  0  0  0  0  0  0  0  0  0
    2.2024   -1.2036   19.0694 C   0  0  0  0  0  0  0  0  0  0  0  0
    1.4572    3.4045   18.2071 N   0  0  0  0  0  0  0  0  0  0  0  0
    2.1663    4.2885   19.1698 C   0  0  0  0  0  0  0  0  0  0  0  0
    3.2216    5.1171   18.4314 C   0  0  0  0  0  0  0  0  0  0  0  0
    4.0573    4.2222   17.5998 N   0  0  0  0  0  0  0  0  0  0  0  0
    5.0212    3.4949   18.4748 C   0  0  0  0  0  0  0  0  0  0  0  0
    4.7865    5.0311   16.5825 C   0  0  0  0  0  0  0  0  0  0  0  0
    5.8937    2.5671   17.6140 C   0  0  0  0  0  0  0  0  0  0  0  0
    5.6634    4.1035   15.7222 C   0  0  0  0  0  0  0  0  0  0  0  0
    6.6242    3.3757   16.5972 N   0  0  0  0  0  0  0  0  0  0  0  0
   -1.5037    1.7958   14.3771 C   0  0  0  0  0  0  0  0  0  0  0  0
   -2.3848    5.8025    9.3581 N   0  0  0  0  0  0  0  0  0  0  0  0
   -1.2008    3.1645   14.1816 C   0  0  0  0  0  0  0  0  0  0  0  0
   -0.6115    3.9163   15.2329 C   0  0  0  0  0  0  0  0  0  0  0  0
   -0.3221    3.2977   16.4800 C   0  0  0  0  0  0  0  0  0  0  0  0
   -0.6434    1.9215   16.6805 C   0  0  0  0  0  0  0  0  0  0  0  0
   -1.2303    1.1732   15.6235 C   0  0  0  0  0  0  0  0  0  0  0  0
   -2.8212    7.0204    9.9273 C   0  0  0  0  0  0  0  0  0  0  0  0
   -2.7705    6.9652   11.3387 C   0  0  0  0  0  0  0  0  0  0  0  0
   -2.0119    5.0896   12.9106 C   0  0  0  0  0  0  0  0  0  0  0  0
   -1.4903    3.7679   12.9497 C   0  0  0  0  0  0  0  0  0  0  0  0
   -1.2565    3.0620   11.7376 C   0  0  0  0  0  0  0  0  0  0  0  0
   -1.5418    3.6782   10.4892 C   0  0  0  0  0  0  0  0  0  0  0  0
   -2.0533    5.0131   10.4527 C   0  0  0  0  0  0  0  0  0  0  0  0
   -2.2859    5.7129   11.6509 C   0  0  0  0  0  0  0  0  0  0  0  0
   -2.3222    5.5706    8.4071 H   0  0  0  0  0  0  0  0  0  0  0  0
    1.6827   -2.4732   20.6145 H   0  0  0  0  0  0  0  0  0  0  0  0
    3.3382   -2.3720   20.3394 H   0  0  0  0  0  0  0  0  0  0  0  0
    2.1065    3.1125   17.4622 H   0  0  0  0  0  0  0  0  0  0  0  0
    7.2039    2.7501   16.0195 H   0  0  0  0  0  0  0  0  0  0  0  0
  1  6  1  0
  1 32  1  0
  1 33  1  0
  2  4  1  0
  2  6  1  0
  3  7  1  0
  3 20  1  0
  4  5  1  0
  5 21  1  0
  7  8  1  0
  7 34  1  0
  8  9  1  0
  9 10  1  0
 10 11  1  0
 10 12  1  0
 11 13  1  0
 12 14  1  0
 13 15  1  0
 14 15  1  0
 15 35  1  0
 16 18  2  0
 16 22  1  0
 17 23  1  0
 17 29  1  0
 17 31  1  0
 18 19  1  0
 18 26  1  0
 19 20  2  0
 20 21  1  0
 21 22  2  0
 23 24  2  0
 24 30  1  0
 25 26  2  0
 25 30  1  0
 26 27  1  0
 27 28  2  0
 28 29  1  0
 29 30  2  0
M  END
>  <CHROM.0>  (35) 
-177.20964576,157.88448934,-56.54671069

>  <CHROM.1>  (35) 
68.04714950,-177.36413435,-177.28538930,172.87301931,-132.81340577,177.06367839
-109.66064269,-87.13163973,-50.33591763,-76.27067143,140.08179807,0.87731698
3.23422613,15.64937874,0.88212389,0.44954892,2.34025821

>  <Name>  (35) 
1uts_h

>  <RI>  (35) 
3.0543e+07

>  <Rbt.Current_Directory>  (35) 
/home/jta30/NA_complexes/1uts

>  <Rbt.Executable>  (35) 
rbdock ($Id: //depot/dev/client3/rdock/2013.1/src/exe/rbdock.cxx#4 $)

>  <Rbt.Library>  (35) 
libRbt.so (2013.1, Build901 2013/11/27)

>  <Rbt.Parameter_File>  (35) 
/software/dev_tools/swtree/cs400_centos7.2_pe2016-08/rdock/2013.1/centos7.2_conda/build/data/scripts/dock.prm

>  <Rbt.Receptor>  (35) 
1uts.prm

>  <SCORE>  (35) 
-6.82724

>  <SCORE.INTER>  (35) 
-3.1128

>  <SCORE.INTER.CONST>  (35) 
1

>  <SCORE.INTER.POLAR>  (35) 
0

>  <SCORE.INTER.REPUL>  (35) 
0

>  <SCORE.INTER.ROT>  (35) 
11

>  <SCORE.INTER.VDW>  (35) 
-19.5128

>  <SCORE.INTER.norm>  (35) 
-0.10376

>  <SCORE.INTRA>  (35) 
-4.90662

>  <SCORE.INTRA.DIHEDRAL>  (35) 
-6.57302

>  <SCORE.INTRA.DIHEDRAL.0>  (35) 
14.7121

>  <SCORE.INTRA.POLAR>  (35) 
-0.19408

>  <SCORE.INTRA.POLAR.0>  (35) 
0

>  <SCORE.INTRA.REPUL>  (35) 
0

>  <SCORE.INTRA.REPUL.0>  (35) 
0

>  <SCORE.INTRA.VDW>  (35) 
-0.960236

>  <SCORE.INTRA.VDW.0>  (35) 
-0.649219

>  <SCORE.INTRA.norm>  (35) 
-0.163554

>  <SCORE.RESTR>  (35) 
0.00357625

>  <SCORE.RESTR.CAVITY>  (35) 
0.00357625

>  <SCORE.RESTR.norm>  (35) 
0.000119208

>  <SCORE.SYSTEM>  (35) 
1.18859

>  <SCORE.SYSTEM.CONST>  (35) 
0

>  <SCORE.SYSTEM.DIHEDRAL>  (35) 
2.45198

>  <SCORE.SYSTEM.POLAR>  (35) 
-0.113719

>  <SCORE.SYSTEM.REPUL>  (35) 
0.105051

>  <SCORE.SYSTEM.VDW>  (35) 
-0.176005

>  <SCORE.SYSTEM.norm>  (35) 
0.0396198

>  <SCORE.heavy>  (35) 
30

>  <SCORE.norm>  (35) 
-0.227575

>  <pdb_header>  (35) 
CRYST1    1.000    1.000    1.000  90.00  90.00  90.00 P 1           1

>  <Predicted_Rank>  (35) 
36.0

$$$$
1uts_h
     RDKit          3D

 35 38  0  0  0  0  0  0  0  0999 V2000
    6.1285    3.3553   19.5375 N   0  0  0  0  0  0  0  0  0  0  0  0
    4.4451    4.8677   18.5803 C   0  0  0  0  0  0  0  0  0  0  0  0
    2.2384    2.0674   16.0140 C   0  0  0  0  0  0  0  0  0  0  0  0
    3.2467    4.9482   17.6303 C   0  0  0  0  0  0  0  0  0  0  0  0
    2.1873    4.1183   18.1288 O   0  0  0  0  0  0  0  0  0  0  0  0
    5.0078    3.4451   18.5745 C   0  0  0  0  0  0  0  0  0  0  0  0
    2.0254    0.9347   16.9434 N   0  0  0  0  0  0  0  0  0  0  0  0
    2.8841   -0.2110   16.5419 C   0  0  0  0  0  0  0  0  0  0  0  0
    4.3214    0.0293   17.0127 C   0  0  0  0  0  0  0  0  0  0  0  0
    5.1585   -1.1378   16.6549 N   0  0  0  0  0  0  0  0  0  0  0  0
    5.0767   -2.1545   17.7428 C   0  0  0  0  0  0  0  0  0  0  0  0
    6.5682   -0.6944   16.4624 C   0  0  0  0  0  0  0  0  0  0  0  0
    5.9481   -3.3668   17.3764 C   0  0  0  0  0  0  0  0  0  0  0  0
    7.4425   -1.9082   16.0990 C   0  0  0  0  0  0  0  0  0  0  0  0
    7.3584   -2.9241   17.1849 N   0  0  0  0  0  0  0  0  0  0  0  0
   -1.0294    4.9695   16.3511 C   0  0  0  0  0  0  0  0  0  0  0  0
   -5.0917    3.9455   11.4168 N   0  0  0  0  0  0  0  0  0  0  0  0
   -1.0333    4.0112   15.3095 C   0  0  0  0  0  0  0  0  0  0  0  0
    0.0289    3.0740   15.2057 C   0  0  0  0  0  0  0  0  0  0  0  0
    1.0948    3.0932   16.1467 C   0  0  0  0  0  0  0  0  0  0  0  0
    1.1050    4.0708   17.1867 C   0  0  0  0  0  0  0  0  0  0  0  0
    0.0375    5.0044   17.2874 C   0  0  0  0  0  0  0  0  0  0  0  0
   -4.2574    4.1316   10.2911 C   0  0  0  0  0  0  0  0  0  0  0  0
   -2.9047    4.2592   10.6804 C   0  0  0  0  0  0  0  0  0  0  0  0
   -1.8187    4.1717   12.9993 C   0  0  0  0  0  0  0  0  0  0  0  0
   -2.0869    3.9994   14.3845 C   0  0  0  0  0  0  0  0  0  0  0  0
   -3.4240    3.8082   14.8293 C   0  0  0  0  0  0  0  0  0  0  0  0
   -4.4900    3.7871   13.8898 C   0  0  0  0  0  0  0  0  0  0  0  0
   -4.2155    3.9469   12.4954 C   0  0  0  0  0  0  0  0  0  0  0  0
   -2.8933    4.1368   12.0536 C   0  0  0  0  0  0  0  0  0  0  0  0
   -6.0659    3.8325   11.4322 H   0  0  0  0  0  0  0  0  0  0  0  0
    6.4701    2.3846   19.5776 H   0  0  0  0  0  0  0  0  0  0  0  0
    6.8929    3.9749   19.2332 H   0  0  0  0  0  0  0  0  0  0  0  0
    1.0351    0.6511   16.9167 H   0  0  0  0  0  0  0  0  0  0  0  0
    7.9380   -3.7381   16.9350 H   0  0  0  0  0  0  0  0  0  0  0  0
  1  6  1  0
  1 32  1  0
  1 33  1  0
  2  4  1  0
  2  6  1  0
  3  7  1  0
  3 20  1  0
  4  5  1  0
  5 21  1  0
  7  8  1  0
  7 34  1  0
  8  9  1  0
  9 10  1  0
 10 11  1  0
 10 12  1  0
 11 13  1  0
 12 14  1  0
 13 15  1  0
 14 15  1  0
 15 35  1  0
 16 18  2  0
 16 22  1  0
 17 23  1  0
 17 29  1  0
 17 31  1  0
 18 19  1  0
 18 26  1  0
 19 20  2  0
 20 21  1  0
 21 22  2  0
 23 24  2  0
 24 30  1  0
 25 26  2  0
 25 30  1  0
 26 27  1  0
 27 28  2  0
 28 29  1  0
 29 30  2  0
M  END
>  <CHROM.0>  (36) 
59.61031752,65.42362992,-53.49007732

>  <CHROM.1>  (36) 
176.52012117,64.99196726,-177.55299944,163.61079140,-98.91243413,-174.16251878
88.03688195,78.54374155,177.86153548,-87.16397297,120.99512336,1.55311433
2.27337072,15.83074742,-0.13905546,-0.60748899,0.55198778

>  <Name>  (36) 
1uts_h

>  <RI>  (36) 
3.0543e+07

>  <Rbt.Current_Directory>  (36) 
/home/jta30/NA_complexes/1uts

>  <Rbt.Executable>  (36) 
rbdock ($Id: //depot/dev/client3/rdock/2013.1/src/exe/rbdock.cxx#4 $)

>  <Rbt.Library>  (36) 
libRbt.so (2013.1, Build901 2013/11/27)

>  <Rbt.Parameter_File>  (36) 
/software/dev_tools/swtree/cs400_centos7.2_pe2016-08/rdock/2013.1/centos7.2_conda/build/data/scripts/dock.prm

>  <Rbt.Receptor>  (36) 
1uts.prm

>  <SCORE>  (36) 
-12.17

>  <SCORE.INTER>  (36) 
-8.89263

>  <SCORE.INTER.CONST>  (36) 
1

>  <SCORE.INTER.POLAR>  (36) 
0

>  <SCORE.INTER.REPUL>  (36) 
0.0678623

>  <SCORE.INTER.ROT>  (36) 
11

>  <SCORE.INTER.VDW>  (36) 
-25.6319

>  <SCORE.INTER.norm>  (36) 
-0.296421

>  <SCORE.INTRA>  (36) 
-4.6119

>  <SCORE.INTRA.DIHEDRAL>  (36) 
-6.27679

>  <SCORE.INTRA.DIHEDRAL.0>  (36) 
14.7121

>  <SCORE.INTRA.POLAR>  (36) 
0

>  <SCORE.INTRA.POLAR.0>  (36) 
0

>  <SCORE.INTRA.REPUL>  (36) 
0

>  <SCORE.INTRA.REPUL.0>  (36) 
0

>  <SCORE.INTRA.VDW>  (36) 
-1.47351

>  <SCORE.INTRA.VDW.0>  (36) 
-0.649219

>  <SCORE.INTRA.norm>  (36) 
-0.15373

>  <SCORE.RESTR>  (36) 
0

>  <SCORE.RESTR.CAVITY>  (36) 
0

>  <SCORE.RESTR.norm>  (36) 
0

>  <SCORE.SYSTEM>  (36) 
1.33455

>  <SCORE.SYSTEM.CONST>  (36) 
0

>  <SCORE.SYSTEM.DIHEDRAL>  (36) 
0.587483

>  <SCORE.SYSTEM.POLAR>  (36) 
-0.0893465

>  <SCORE.SYSTEM.REPUL>  (36) 
0.45524

>  <SCORE.SYSTEM.VDW>  (36) 
-0.93161

>  <SCORE.SYSTEM.norm>  (36) 
0.0444852

>  <SCORE.heavy>  (36) 
30

>  <SCORE.norm>  (36) 
-0.405666

>  <pdb_header>  (36) 
CRYST1    1.000    1.000    1.000  90.00  90.00  90.00 P 1           1

>  <Predicted_Rank>  (36) 
37.0

$$$$
1uts_h
     RDKit          3D

 35 38  0  0  0  0  0  0  0  0999 V2000
    1.8851   -2.6261   17.3330 N   0  0  0  0  0  0  0  0  0  0  0  0
    2.4512   -0.4874   16.2642 C   0  0  0  0  0  0  0  0  0  0  0  0
    2.0677    4.4613   16.2315 C   0  0  0  0  0  0  0  0  0  0  0  0
    3.0764    0.8893   16.5074 C   0  0  0  0  0  0  0  0  0  0  0  0
    2.1622    1.7014   17.2588 O   0  0  0  0  0  0  0  0  0  0  0  0
    2.3467   -1.2432   17.5900 C   0  0  0  0  0  0  0  0  0  0  0  0
    3.3498    4.0562   15.6115 N   0  0  0  0  0  0  0  0  0  0  0  0
    4.3639    3.8131   16.6714 C   0  0  0  0  0  0  0  0  0  0  0  0
    4.8997    5.1500   17.1920 C   0  0  0  0  0  0  0  0  0  0  0  0
    5.7667    4.9092   18.3672 N   0  0  0  0  0  0  0  0  0  0  0  0
    4.9436    4.9786   19.6088 C   0  0  0  0  0  0  0  0  0  0  0  0
    6.8479    5.9343   18.4020 C   0  0  0  0  0  0  0  0  0  0  0  0
    5.8417    4.7328   20.8320 C   0  0  0  0  0  0  0  0  0  0  0  0
    7.7456    5.6914   19.6286 C   0  0  0  0  0  0  0  0  0  0  0  0
    6.9224    5.7585   20.8680 N   0  0  0  0  0  0  0  0  0  0  0  0
   -1.0779    1.5437   15.3331 C   0  0  0  0  0  0  0  0  0  0  0  0
   -5.4698    4.3020   11.5073 N   0  0  0  0  0  0  0  0  0  0  0  0
   -1.1699    2.8653   14.8350 C   0  0  0  0  0  0  0  0  0  0  0  0
   -0.1473    3.8058   15.1302 C   0  0  0  0  0  0  0  0  0  0  0  0
    0.9701    3.4233   15.9221 C   0  0  0  0  0  0  0  0  0  0  0  0
    1.0527    2.0947   16.4370 C   0  0  0  0  0  0  0  0  0  0  0  0
    0.0276    1.1566   16.1356 C   0  0  0  0  0  0  0  0  0  0  0  0
   -4.7456    4.3450   10.2943 C   0  0  0  0  0  0  0  0  0  0  0  0
   -3.3805    4.0489   10.5102 C   0  0  0  0  0  0  0  0  0  0  0  0
   -2.1213    3.4490   12.6593 C   0  0  0  0  0  0  0  0  0  0  0  0
   -2.2752    3.2355   14.0561 C   0  0  0  0  0  0  0  0  0  0  0  0
   -3.5531    3.3913   14.6604 C   0  0  0  0  0  0  0  0  0  0  0  0
   -4.6746    3.7576   13.8682 C   0  0  0  0  0  0  0  0  0  0  0  0
   -4.5192    3.9581   12.4609 C   0  0  0  0  0  0  0  0  0  0  0  0
   -3.2557    3.8051   11.8614 C   0  0  0  0  0  0  0  0  0  0  0  0
   -6.4268    4.4685   11.6435 H   0  0  0  0  0  0  0  0  0  0  0  0
    2.4814   -3.0593   16.6137 H   0  0  0  0  0  0  0  0  0  0  0  0
    1.9443   -3.1748   18.2026 H   0  0  0  0  0  0  0  0  0  0  0  0
    3.6781    4.8041   14.9834 H   0  0  0  0  0  0  0  0  0  0  0  0
    7.5246    5.5876   21.6861 H   0  0  0  0  0  0  0  0  0  0  0  0
  1  6  1  0
  1 32  1  0
  1 33  1  0
  2  4  1  0
  2  6  1  0
  3  7  1  0
  3 20  1  0
  4  5  1  0
  5 21  1  0
  7  8  1  0
  7 34  1  0
  8  9  1  0
  9 10  1  0
 10 11  1  0
 10 12  1  0
 11 13  1  0
 12 14  1  0
 13 15  1  0
 14 15  1  0
 15 35  1  0
 16 18  2  0
 16 22  1  0
 17 23  1  0
 17 29  1  0
 17 31  1  0
 18 19  1  0
 18 26  1  0
 19 20  2  0
 20 21  1  0
 21 22  2  0
 23 24  2  0
 24 30  1  0
 25 26  2  0
 25 30  1  0
 26 27  1  0
 27 28  2  0
 28 29  1  0
 29 30  2  0
M  END
>  <CHROM.0>  (37) 
59.41845628,69.55407274,-56.18019817

>  <CHROM.1>  (37) 
51.94994558,-68.30649030,-173.69436790,-117.03246407,-115.37833840,-71.85251065
-104.22446642,-77.47703994,172.34207918,-91.33071482,-107.96813760,1.24392752
3.20521571,15.95514773,0.02971674,0.60617544,2.96074683

>  <Name>  (37) 
1uts_h

>  <RI>  (37) 
3.0543e+07

>  <Rbt.Current_Directory>  (37) 
/home/jta30/NA_complexes/1uts

>  <Rbt.Executable>  (37) 
rbdock ($Id: //depot/dev/client3/rdock/2013.1/src/exe/rbdock.cxx#4 $)

>  <Rbt.Library>  (37) 
libRbt.so (2013.1, Build901 2013/11/27)

>  <Rbt.Parameter_File>  (37) 
/software/dev_tools/swtree/cs400_centos7.2_pe2016-08/rdock/2013.1/centos7.2_conda/build/data/scripts/dock.prm

>  <Rbt.Receptor>  (37) 
1uts.prm

>  <SCORE>  (37) 
-13.7965

>  <SCORE.INTER>  (37) 
-13.7289

>  <SCORE.INTER.CONST>  (37) 
1

>  <SCORE.INTER.POLAR>  (37) 
-1.5494

>  <SCORE.INTER.REPUL>  (37) 
0

>  <SCORE.INTER.ROT>  (37) 
11

>  <SCORE.INTER.VDW>  (37) 
-24.8609

>  <SCORE.INTER.norm>  (37) 
-0.457629

>  <SCORE.INTRA>  (37) 
-1.40735

>  <SCORE.INTRA.DIHEDRAL>  (37) 
-3.04728

>  <SCORE.INTRA.DIHEDRAL.0>  (37) 
14.7121

>  <SCORE.INTRA.POLAR>  (37) 
0

>  <SCORE.INTRA.POLAR.0>  (37) 
0

>  <SCORE.INTRA.REPUL>  (37) 
0

>  <SCORE.INTRA.REPUL.0>  (37) 
0

>  <SCORE.INTRA.VDW>  (37) 
0.116292

>  <SCORE.INTRA.VDW.0>  (37) 
-0.649219

>  <SCORE.INTRA.norm>  (37) 
-0.0469117

>  <SCORE.RESTR>  (37) 
0

>  <SCORE.RESTR.CAVITY>  (37) 
0

>  <SCORE.RESTR.norm>  (37) 
0

>  <SCORE.SYSTEM>  (37) 
1.33977

>  <SCORE.SYSTEM.CONST>  (37) 
0

>  <SCORE.SYSTEM.DIHEDRAL>  (37) 
0.748188

>  <SCORE.SYSTEM.POLAR>  (37) 
-0.13368

>  <SCORE.SYSTEM.REPUL>  (37) 
0.455201

>  <SCORE.SYSTEM.VDW>  (37) 
-0.855825

>  <SCORE.SYSTEM.norm>  (37) 
0.0446589

>  <SCORE.heavy>  (37) 
30

>  <SCORE.norm>  (37) 
-0.459882

>  <pdb_header>  (37) 
CRYST1    1.000    1.000    1.000  90.00  90.00  90.00 P 1           1

>  <Predicted_Rank>  (37) 
38.0

$$$$
1uts_h
     RDKit          3D

 35 38  0  0  0  0  0  0  0  0999 V2000
    5.6627    6.0638   19.9704 N   0  0  0  0  0  0  0  0  0  0  0  0
    3.2205    6.2615   19.7860 C   0  0  0  0  0  0  0  0  0  0  0  0
    2.7521    4.2001   15.6500 C   0  0  0  0  0  0  0  0  0  0  0  0
    2.0301    6.1001   18.8362 C   0  0  0  0  0  0  0  0  0  0  0  0
    1.9284    4.7275   18.4293 O   0  0  0  0  0  0  0  0  0  0  0  0
    4.5150    5.9177   19.0468 C   0  0  0  0  0  0  0  0  0  0  0  0
    3.3664    3.0086   16.2784 N   0  0  0  0  0  0  0  0  0  0  0  0
    4.8469    3.1471   16.2737 C   0  0  0  0  0  0  0  0  0  0  0  0
    5.4618    2.1671   17.2772 C   0  0  0  0  0  0  0  0  0  0  0  0
    5.0911    0.7833   16.9049 N   0  0  0  0  0  0  0  0  0  0  0  0
    3.9881    0.3136   17.7919 C   0  0  0  0  0  0  0  0  0  0  0  0
    6.2822   -0.1015   17.0431 C   0  0  0  0  0  0  0  0  0  0  0  0
    3.6029   -1.1250   17.4106 C   0  0  0  0  0  0  0  0  0  0  0  0
    5.8967   -1.5431   16.6651 C   0  0  0  0  0  0  0  0  0  0  0  0
    4.7935   -2.0107   17.5498 N   0  0  0  0  0  0  0  0  0  0  0  0
   -1.4655    4.5530   16.7913 C   0  0  0  0  0  0  0  0  0  0  0  0
   -5.3160    3.8584   11.7356 N   0  0  0  0  0  0  0  0  0  0  0  0
   -1.1109    4.3170   15.4416 C   0  0  0  0  0  0  0  0  0  0  0  0
    0.2576    4.2042   15.0785 C   0  0  0  0  0  0  0  0  0  0  0  0
    1.2727    4.3244   16.0670 C   0  0  0  0  0  0  0  0  0  0  0  0
    0.9135    4.5787   17.4248 C   0  0  0  0  0  0  0  0  0  0  0  0
   -0.4581    4.6876   17.7829 C   0  0  0  0  0  0  0  0  0  0  0  0
   -6.3440    3.5949   12.6691 C   0  0  0  0  0  0  0  0  0  0  0  0
   -5.8323    3.5548   13.9861 C   0  0  0  0  0  0  0  0  0  0  0  0
   -3.4512    3.9055   14.8641 C   0  0  0  0  0  0  0  0  0  0  0  0
   -2.1172    4.2010   14.4722 C   0  0  0  0  0  0  0  0  0  0  0  0
   -1.8068    4.3855   13.0968 C   0  0  0  0  0  0  0  0  0  0  0  0
   -2.8295    4.2768   12.1160 C   0  0  0  0  0  0  0  0  0  0  0  0
   -4.1732    3.9932   12.5147 C   0  0  0  0  0  0  0  0  0  0  0  0
   -4.4820    3.8097   13.8749 C   0  0  0  0  0  0  0  0  0  0  0  0
   -5.3933    3.9367   10.7609 H   0  0  0  0  0  0  0  0  0  0  0  0
    5.7128    5.2419   20.5889 H   0  0  0  0  0  0  0  0  0  0  0  0
    6.5340    6.1363   19.4261 H   0  0  0  0  0  0  0  0  0  0  0  0
    3.0959    2.1654   15.7514 H   0  0  0  0  0  0  0  0  0  0  0  0
    4.5326   -2.9725   17.2890 H   0  0  0  0  0  0  0  0  0  0  0  0
  1  6  1  0
  1 32  1  0
  1 33  1  0
  2  4  1  0
  2  6  1  0
  3  7  1  0
  3 20  1  0
  4  5  1  0
  5 21  1  0
  7  8  1  0
  7 34  1  0
  8  9  1  0
  9 10  1  0
 10 11  1  0
 10 12  1  0
 11 13  1  0
 12 14  1  0
 13 15  1  0
 14 15  1  0
 15 35  1  0
 16 18  2  0
 16 22  1  0
 17 23  1  0
 17 29  1  0
 17 31  1  0
 18 19  1  0
 18 26  1  0
 19 20  2  0
 20 21  1  0
 21 22  2  0
 23 24  2  0
 24 30  1  0
 25 26  2  0
 25 30  1  0
 26 27  1  0
 27 28  2  0
 28 29  1  0
 29 30  2  0
M  END
>  <CHROM.0>  (38) 
-49.63168072,84.73752961,50.70191814

>  <CHROM.1>  (38) 
78.28523837,63.05523774,-179.53697121,-160.35135739,-115.55836199,-173.60686785
107.72799106,162.64360664,59.66697537,-101.95777227,-19.47992140,1.13528095
3.28131663,16.21075744,-0.00586818,-0.49850493,0.44395470

>  <Name>  (38) 
1uts_h

>  <RI>  (38) 
3.0543e+07

>  <Rbt.Current_Directory>  (38) 
/home/jta30/NA_complexes/1uts

>  <Rbt.Executable>  (38) 
rbdock ($Id: //depot/dev/client3/rdock/2013.1/src/exe/rbdock.cxx#4 $)

>  <Rbt.Library>  (38) 
libRbt.so (2013.1, Build901 2013/11/27)

>  <Rbt.Parameter_File>  (38) 
/software/dev_tools/swtree/cs400_centos7.2_pe2016-08/rdock/2013.1/centos7.2_conda/build/data/scripts/dock.prm

>  <Rbt.Receptor>  (38) 
1uts.prm

>  <SCORE>  (38) 
-7.86622

>  <SCORE.INTER>  (38) 
-10.9196

>  <SCORE.INTER.CONST>  (38) 
1

>  <SCORE.INTER.POLAR>  (38) 
-0.0582134

>  <SCORE.INTER.REPUL>  (38) 
0

>  <SCORE.INTER.ROT>  (38) 
11

>  <SCORE.INTER.VDW>  (38) 
-27.1217

>  <SCORE.INTER.norm>  (38) 
-0.363986

>  <SCORE.INTRA>  (38) 
-4.54991

>  <SCORE.INTRA.DIHEDRAL>  (38) 
-4.923

>  <SCORE.INTRA.DIHEDRAL.0>  (38) 
14.7121

>  <SCORE.INTRA.POLAR>  (38) 
0

>  <SCORE.INTRA.POLAR.0>  (38) 
0

>  <SCORE.INTRA.REPUL>  (38) 
0

>  <SCORE.INTRA.REPUL.0>  (38) 
0

>  <SCORE.INTRA.VDW>  (38) 
-2.0884

>  <SCORE.INTRA.VDW.0>  (38) 
-0.649219

>  <SCORE.INTRA.norm>  (38) 
-0.151664

>  <SCORE.RESTR>  (38) 
0

>  <SCORE.RESTR.CAVITY>  (38) 
0

>  <SCORE.RESTR.norm>  (38) 
0

>  <SCORE.SYSTEM>  (38) 
7.60327

>  <SCORE.SYSTEM.CONST>  (38) 
0

>  <SCORE.SYSTEM.DIHEDRAL>  (38) 
3.72705

>  <SCORE.SYSTEM.POLAR>  (38) 
-0.080859

>  <SCORE.SYSTEM.REPUL>  (38) 
0.769745

>  <SCORE.SYSTEM.VDW>  (38) 
2.16594

>  <SCORE.SYSTEM.norm>  (38) 
0.253442

>  <SCORE.heavy>  (38) 
30

>  <SCORE.norm>  (38) 
-0.262207

>  <pdb_header>  (38) 
CRYST1    1.000    1.000    1.000  90.00  90.00  90.00 P 1           1

>  <Predicted_Rank>  (38) 
39.0

$$$$
1uts_h
     RDKit          3D

 35 38  0  0  0  0  0  0  0  0999 V2000
   -2.6470    4.8845   12.7936 N   0  0  0  0  0  0  0  0  0  0  0  0
   -2.1961    2.9194   14.1979 C   0  0  0  0  0  0  0  0  0  0  0  0
    2.2849    4.2092   15.6795 C   0  0  0  0  0  0  0  0  0  0  0  0
   -1.0909    2.0102   14.7429 C   0  0  0  0  0  0  0  0  0  0  0  0
   -0.2753    2.7509   15.6626 O   0  0  0  0  0  0  0  0  0  0  0  0
   -1.5759    4.0113   13.3242 C   0  0  0  0  0  0  0  0  0  0  0  0
    3.1600    4.8719   16.6729 N   0  0  0  0  0  0  0  0  0  0  0  0
    4.5666    4.8560   16.1909 C   0  0  0  0  0  0  0  0  0  0  0  0
    5.5131    5.2028   17.3439 C   0  0  0  0  0  0  0  0  0  0  0  0
    5.2863    4.2651   18.4664 N   0  0  0  0  0  0  0  0  0  0  0  0
    5.6219    4.9444   19.7509 C   0  0  0  0  0  0  0  0  0  0  0  0
    6.1373    3.0560   18.2798 C   0  0  0  0  0  0  0  0  0  0  0  0
    5.3912    3.9721   20.9190 C   0  0  0  0  0  0  0  0  0  0  0  0
    5.9099    2.0832   19.4510 C   0  0  0  0  0  0  0  0  0  0  0  0
    6.2429    2.7631   20.7336 N   0  0  0  0  0  0  0  0  0  0  0  0
    2.0593   -0.0893   16.5081 C   0  0  0  0  0  0  0  0  0  0  0  0
    7.8529   -2.5646   17.5909 N   0  0  0  0  0  0  0  0  0  0  0  0
    3.3114    0.5707   16.5082 C   0  0  0  0  0  0  0  0  0  0  0  0
    3.3774    1.9637   16.2385 C   0  0  0  0  0  0  0  0  0  0  0  0
    2.1895    2.6980   15.9713 C   0  0  0  0  0  0  0  0  0  0  0  0
    0.9297    2.0274   15.9556 C   0  0  0  0  0  0  0  0  0  0  0  0
    0.8693    0.6335   16.2294 C   0  0  0  0  0  0  0  0  0  0  0  0
    7.1678   -3.7093   18.0580 C   0  0  0  0  0  0  0  0  0  0  0  0
    5.7699   -3.5016   18.0458 C   0  0  0  0  0  0  0  0  0  0  0  0
    4.3892   -1.4735   17.3077 C   0  0  0  0  0  0  0  0  0  0  0  0
    4.4785   -0.1603   16.7711 C   0  0  0  0  0  0  0  0  0  0  0  0
    5.7527    0.4075   16.4949 C   0  0  0  0  0  0  0  0  0  0  0  0
    6.9347   -0.3380   16.7532 C   0  0  0  0  0  0  0  0  0  0  0  0
    6.8411   -1.6641   17.2800 C   0  0  0  0  0  0  0  0  0  0  0  0
    5.5814   -2.2273   17.5544 C   0  0  0  0  0  0  0  0  0  0  0  0
    8.8211   -2.4380   17.4990 H   0  0  0  0  0  0  0  0  0  0  0  0
   -2.9355    5.5548   13.5203 H   0  0  0  0  0  0  0  0  0  0  0  0
   -2.2955    5.3991   11.9735 H   0  0  0  0  0  0  0  0  0  0  0  0
    3.0967    4.3730   17.5723 H   0  0  0  0  0  0  0  0  0  0  0  0
    6.0821    2.1122   21.5156 H   0  0  0  0  0  0  0  0  0  0  0  0
  1  6  1  0
  1 32  1  0
  1 33  1  0
  2  4  1  0
  2  6  1  0
  3  7  1  0
  3 20  1  0
  4  5  1  0
  5 21  1  0
  7  8  1  0
  7 34  1  0
  8  9  1  0
  9 10  1  0
 10 11  1  0
 10 12  1  0
 11 13  1  0
 12 14  1  0
 13 15  1  0
 14 15  1  0
 15 35  1  0
 16 18  2  0
 16 22  1  0
 17 23  1  0
 17 29  1  0
 17 31  1  0
 18 19  1  0
 18 26  1  0
 19 20  2  0
 20 21  1  0
 21 22  2  0
 23 24  2  0
 24 30  1  0
 25 26  2  0
 25 30  1  0
 26 27  1  0
 27 28  2  0
 28 29  1  0
 29 30  2  0
M  END
>  <CHROM.0>  (39) 
61.30576954,67.36911381,49.71698395

>  <CHROM.1>  (39) 
79.43772200,67.26014775,179.72440090,89.48659849,-46.80372519,-167.10349369
135.34324984,-165.51867024,55.98135666,-151.30126212,-13.28248484,3.58526015
1.80882171,16.90907407,2.79133660,-0.56727264,0.22239154

>  <Name>  (39) 
1uts_h

>  <RI>  (39) 
3.0543e+07

>  <Rbt.Current_Directory>  (39) 
/home/jta30/NA_complexes/1uts

>  <Rbt.Executable>  (39) 
rbdock ($Id: //depot/dev/client3/rdock/2013.1/src/exe/rbdock.cxx#4 $)

>  <Rbt.Library>  (39) 
libRbt.so (2013.1, Build901 2013/11/27)

>  <Rbt.Parameter_File>  (39) 
/software/dev_tools/swtree/cs400_centos7.2_pe2016-08/rdock/2013.1/centos7.2_conda/build/data/scripts/dock.prm

>  <Rbt.Receptor>  (39) 
1uts.prm

>  <SCORE>  (39) 
-6.78406

>  <SCORE.INTER>  (39) 
-6.11862

>  <SCORE.INTER.CONST>  (39) 
1

>  <SCORE.INTER.POLAR>  (39) 
-0.979796

>  <SCORE.INTER.REPUL>  (39) 
0.0620009

>  <SCORE.INTER.ROT>  (39) 
11

>  <SCORE.INTER.VDW>  (39) 
-19.4973

>  <SCORE.INTER.norm>  (39) 
-0.203954

>  <SCORE.INTRA>  (39) 
-3.7214

>  <SCORE.INTRA.DIHEDRAL>  (39) 
-4.46059

>  <SCORE.INTRA.DIHEDRAL.0>  (39) 
14.7121

>  <SCORE.INTRA.POLAR>  (39) 
-0.074458

>  <SCORE.INTRA.POLAR.0>  (39) 
0

>  <SCORE.INTRA.REPUL>  (39) 
0

>  <SCORE.INTRA.REPUL.0>  (39) 
0

>  <SCORE.INTRA.VDW>  (39) 
-1.23795

>  <SCORE.INTRA.VDW.0>  (39) 
-0.649219

>  <SCORE.INTRA.norm>  (39) 
-0.124047

>  <SCORE.RESTR>  (39) 
0

>  <SCORE.RESTR.CAVITY>  (39) 
0

>  <SCORE.RESTR.norm>  (39) 
0

>  <SCORE.SYSTEM>  (39) 
3.05596

>  <SCORE.SYSTEM.CONST>  (39) 
0

>  <SCORE.SYSTEM.DIHEDRAL>  (39) 
1.00612

>  <SCORE.SYSTEM.POLAR>  (39) 
-0.108583

>  <SCORE.SYSTEM.REPUL>  (39) 
0.764887

>  <SCORE.SYSTEM.VDW>  (39) 
-0.90235

>  <SCORE.SYSTEM.norm>  (39) 
0.101865

>  <SCORE.heavy>  (39) 
30

>  <SCORE.norm>  (39) 
-0.226135

>  <pdb_header>  (39) 
CRYST1    1.000    1.000    1.000  90.00  90.00  90.00 P 1           1

>  <Predicted_Rank>  (39) 
40.0

$$$$
1uts_h
     RDKit          3D

 35 38  0  0  0  0  0  0  0  0999 V2000
    6.2837    3.2951   18.6739 N   0  0  0  0  0  0  0  0  0  0  0  0
    3.9101    2.6615   18.6311 C   0  0  0  0  0  0  0  0  0  0  0  0
    0.9092    0.3239   16.1141 C   0  0  0  0  0  0  0  0  0  0  0  0
    2.5685    2.9301   17.9432 C   0  0  0  0  0  0  0  0  0  0  0  0
    2.6840    2.6363   16.5432 O   0  0  0  0  0  0  0  0  0  0  0  0
    4.9643    3.6301   18.0920 C   0  0  0  0  0  0  0  0  0  0  0  0
    2.3685    0.1056   15.9921 N   0  0  0  0  0  0  0  0  0  0  0  0
    2.8342   -0.7887   17.0850 C   0  0  0  0  0  0  0  0  0  0  0  0
    4.3649   -0.7932   17.1336 C   0  0  0  0  0  0  0  0  0  0  0  0
    4.8204   -1.6769   18.2302 N   0  0  0  0  0  0  0  0  0  0  0  0
    4.3484   -3.0674   17.9703 C   0  0  0  0  0  0  0  0  0  0  0  0
    4.2780   -1.1771   19.5252 C   0  0  0  0  0  0  0  0  0  0  0  0
    4.8164   -3.9876   19.1093 C   0  0  0  0  0  0  0  0  0  0  0  0
    4.7429   -2.1000   20.6662 C   0  0  0  0  0  0  0  0  0  0  0  0
    4.2732   -3.4889   20.4046 N   0  0  0  0  0  0  0  0  0  0  0  0
   -0.1779    4.3586   14.7897 C   0  0  0  0  0  0  0  0  0  0  0  0
   -5.7933    4.1300   11.6501 N   0  0  0  0  0  0  0  0  0  0  0  0
   -1.0510    3.2711   14.5483 C   0  0  0  0  0  0  0  0  0  0  0  0
   -0.6923    1.9662   14.9797 C   0  0  0  0  0  0  0  0  0  0  0  0
    0.5395    1.7492   15.6561 C   0  0  0  0  0  0  0  0  0  0  0  0
    1.4258    2.8445   15.8840 C   0  0  0  0  0  0  0  0  0  0  0  0
    1.0601    4.1491   15.4527 C   0  0  0  0  0  0  0  0  0  0  0  0
   -5.1964    4.2759   10.3772 C   0  0  0  0  0  0  0  0  0  0  0  0
   -3.7900    4.1656   10.4631 C   0  0  0  0  0  0  0  0  0  0  0  0
   -2.2687    3.7312   12.4784 C   0  0  0  0  0  0  0  0  0  0  0  0
   -2.2631    3.4924   13.8796 C   0  0  0  0  0  0  0  0  0  0  0  0
   -3.4890    3.4716   14.6000 C   0  0  0  0  0  0  0  0  0  0  0  0
   -4.7178    3.6870   13.9194 C   0  0  0  0  0  0  0  0  0  0  0  0
   -4.7213    3.9131   12.5073 C   0  0  0  0  0  0  0  0  0  0  0  0
   -3.5094    3.9346   11.7930 C   0  0  0  0  0  0  0  0  0  0  0  0
   -6.7472    4.1653   11.8755 H   0  0  0  0  0  0  0  0  0  0  0  0
    6.9822    3.9842   18.3608 H   0  0  0  0  0  0  0  0  0  0  0  0
    6.2203    3.3147   19.7016 H   0  0  0  0  0  0  0  0  0  0  0  0
    2.8568    1.0108   16.0538 H   0  0  0  0  0  0  0  0  0  0  0  0
    4.5927   -4.1052   21.1657 H   0  0  0  0  0  0  0  0  0  0  0  0
  1  6  1  0
  1 32  1  0
  1 33  1  0
  2  4  1  0
  2  6  1  0
  3  7  1  0
  3 20  1  0
  4  5  1  0
  5 21  1  0
  7  8  1  0
  7 34  1  0
  8  9  1  0
  9 10  1  0
 10 11  1  0
 10 12  1  0
 11 13  1  0
 12 14  1  0
 13 15  1  0
 14 15  1  0
 15 35  1  0
 16 18  2  0
 16 22  1  0
 17 23  1  0
 17 29  1  0
 17 31  1  0
 18 19  1  0
 18 26  1  0
 19 20  2  0
 20 21  1  0
 21 22  2  0
 23 24  2  0
 24 30  1  0
 25 26  2  0
 25 30  1  0
 26 27  1  0
 27 28  2  0
 28 29  1  0
 29 30  2  0
M  END
>  <CHROM.0>  (40) 
65.81959326,67.37749760,-164.02864302

>  <CHROM.1>  (40) 
-176.27367645,64.65182326,-175.30515821,146.02871315,144.65321414,178.34906191
-96.16708620,-168.73977187,179.56183323,61.18530968,74.18657145,1.01922371
1.59995979,16.01306699,-0.54518394,-0.57824401,-0.17821617

>  <Name>  (40) 
1uts_h

>  <RI>  (40) 
3.0543e+07

>  <Rbt.Current_Directory>  (40) 
/home/jta30/NA_complexes/1uts

>  <Rbt.Executable>  (40) 
rbdock ($Id: //depot/dev/client3/rdock/2013.1/src/exe/rbdock.cxx#4 $)

>  <Rbt.Library>  (40) 
libRbt.so (2013.1, Build901 2013/11/27)

>  <Rbt.Parameter_File>  (40) 
/software/dev_tools/swtree/cs400_centos7.2_pe2016-08/rdock/2013.1/centos7.2_conda/build/data/scripts/dock.prm

>  <Rbt.Receptor>  (40) 
1uts.prm

>  <SCORE>  (40) 
-8.96911

>  <SCORE.INTER>  (40) 
-8.82686

>  <SCORE.INTER.CONST>  (40) 
1

>  <SCORE.INTER.POLAR>  (40) 
-0.299401

>  <SCORE.INTER.REPUL>  (40) 
0.00104055

>  <SCORE.INTER.ROT>  (40) 
11

>  <SCORE.INTER.VDW>  (40) 
-24.2141

>  <SCORE.INTER.norm>  (40) 
-0.294229

>  <SCORE.INTRA>  (40) 
-4.29723

>  <SCORE.INTRA.DIHEDRAL>  (40) 
-6.71797

>  <SCORE.INTRA.DIHEDRAL.0>  (40) 
14.7121

>  <SCORE.INTRA.POLAR>  (40) 
-0.874314

>  <SCORE.INTRA.POLAR.0>  (40) 
0

>  <SCORE.INTRA.REPUL>  (40) 
0

>  <SCORE.INTRA.REPUL.0>  (40) 
0

>  <SCORE.INTRA.VDW>  (40) 
2.03442

>  <SCORE.INTRA.VDW.0>  (40) 
-0.649219

>  <SCORE.INTRA.norm>  (40) 
-0.143241

>  <SCORE.RESTR>  (40) 
0

>  <SCORE.RESTR.CAVITY>  (40) 
0

>  <SCORE.RESTR.norm>  (40) 
0

>  <SCORE.SYSTEM>  (40) 
4.15497

>  <SCORE.SYSTEM.CONST>  (40) 
0

>  <SCORE.SYSTEM.DIHEDRAL>  (40) 
1.81855

>  <SCORE.SYSTEM.POLAR>  (40) 
-0.108686

>  <SCORE.SYSTEM.REPUL>  (40) 
1.02695

>  <SCORE.SYSTEM.VDW>  (40) 
-1.5195

>  <SCORE.SYSTEM.norm>  (40) 
0.138499

>  <SCORE.heavy>  (40) 
30

>  <SCORE.norm>  (40) 
-0.29897

>  <pdb_header>  (40) 
CRYST1    1.000    1.000    1.000  90.00  90.00  90.00 P 1           1

>  <Predicted_Rank>  (40) 
41.0

$$$$
1uts_h
     RDKit          3D

 35 38  0  0  0  0  0  0  0  0999 V2000
    4.5622    3.8795   18.6532 N   0  0  0  0  0  0  0  0  0  0  0  0
    2.8054    3.6785   20.3592 C   0  0  0  0  0  0  0  0  0  0  0  0
    2.1788    2.4725   16.0662 C   0  0  0  0  0  0  0  0  0  0  0  0
    1.6515    3.5856   19.3567 C   0  0  0  0  0  0  0  0  0  0  0  0
    1.9209    4.4453   18.2395 O   0  0  0  0  0  0  0  0  0  0  0  0
    4.0571    3.0353   19.7594 C   0  0  0  0  0  0  0  0  0  0  0  0
    1.9798    1.2438   16.8679 N   0  0  0  0  0  0  0  0  0  0  0  0
    2.9678    0.2116   16.4562 C   0  0  0  0  0  0  0  0  0  0  0  0
    4.3279    0.5139   17.0920 C   0  0  0  0  0  0  0  0  0  0  0  0
    5.3360   -0.4385   16.5747 N   0  0  0  0  0  0  0  0  0  0  0  0
    5.3101   -1.6798   17.4006 C   0  0  0  0  0  0  0  0  0  0  0  0
    6.6849    0.1929   16.6270 C   0  0  0  0  0  0  0  0  0  0  0  0
    6.3587   -2.6700   16.8686 C   0  0  0  0  0  0  0  0  0  0  0  0
    7.7363   -0.7991   16.0979 C   0  0  0  0  0  0  0  0  0  0  0  0
    7.7082   -2.0395   16.9218 N   0  0  0  0  0  0  0  0  0  0  0  0
   -1.3079    5.1075   16.4044 C   0  0  0  0  0  0  0  0  0  0  0  0
   -5.1611    3.9243   11.3374 N   0  0  0  0  0  0  0  0  0  0  0  0
   -1.2139    4.1854   15.3347 C   0  0  0  0  0  0  0  0  0  0  0  0
   -0.0811    3.3348   15.2308 C   0  0  0  0  0  0  0  0  0  0  0  0
    0.9574    3.4044   16.1996 C   0  0  0  0  0  0  0  0  0  0  0  0
    0.8683    4.3463   17.2683 C   0  0  0  0  0  0  0  0  0  0  0  0
   -0.2695    5.1930   17.3689 C   0  0  0  0  0  0  0  0  0  0  0  0
   -4.3052    4.1342   10.2324 C   0  0  0  0  0  0  0  0  0  0  0  0
   -2.9695    4.3192   10.6559 C   0  0  0  0  0  0  0  0  0  0  0  0
   -1.9432    4.2948   13.0032 C   0  0  0  0  0  0  0  0  0  0  0  0
   -2.2411    4.1236   14.3825 C   0  0  0  0  0  0  0  0  0  0  0  0
   -3.5809    3.8826   14.7937 C   0  0  0  0  0  0  0  0  0  0  0  0
   -4.6198    3.8110   13.8267 C   0  0  0  0  0  0  0  0  0  0  0  0
   -4.3148    3.9699   12.4386 C   0  0  0  0  0  0  0  0  0  0  0  0
   -2.9899    4.2089   12.0300 C   0  0  0  0  0  0  0  0  0  0  0  0
   -6.1301    3.7725   11.3282 H   0  0  0  0  0  0  0  0  0  0  0  0
    5.2381    3.3421   18.0920 H   0  0  0  0  0  0  0  0  0  0  0  0
    3.7750    4.1692   18.0557 H   0  0  0  0  0  0  0  0  0  0  0  0
    1.0245    0.8879   16.7182 H   0  0  0  0  0  0  0  0  0  0  0  0
    8.4071   -2.7042   16.5602 H   0  0  0  0  0  0  0  0  0  0  0  0
  1  6  1  0
  1 32  1  0
  1 33  1  0
  2  4  1  0
  2  6  1  0
  3  7  1  0
  3 20  1  0
  4  5  1  0
  5 21  1  0
  7  8  1  0
  7 34  1  0
  8  9  1  0
  9 10  1  0
 10 11  1  0
 10 12  1  0
 11 13  1  0
 12 14  1  0
 13 15  1  0
 14 15  1  0
 15 35  1  0
 16 18  2  0
 16 22  1  0
 17 23  1  0
 17 29  1  0
 17 31  1  0
 18 19  1  0
 18 26  1  0
 19 20  2  0
 20 21  1  0
 21 22  2  0
 23 24  2  0
 24 30  1  0
 25 26  2  0
 25 30  1  0
 26 27  1  0
 27 28  2  0
 28 29  1  0
 29 30  2  0
M  END
>  <CHROM.0>  (41) 
60.15174699,65.88499471,-163.64664414

>  <CHROM.1>  (41) 
-165.08925874,-69.04840408,69.68067765,164.95771179,-94.17945388,178.41826454
-91.65011563,78.79170353,-174.52688589,-86.15566257,124.07365091,1.31926904
2.48543108,15.92223965,0.10700943,-0.59248321,0.93978671

>  <Name>  (41) 
1uts_h

>  <RI>  (41) 
3.0543e+07

>  <Rbt.Current_Directory>  (41) 
/home/jta30/NA_complexes/1uts

>  <Rbt.Executable>  (41) 
rbdock ($Id: //depot/dev/client3/rdock/2013.1/src/exe/rbdock.cxx#4 $)

>  <Rbt.Library>  (41) 
libRbt.so (2013.1, Build901 2013/11/27)

>  <Rbt.Parameter_File>  (41) 
/software/dev_tools/swtree/cs400_centos7.2_pe2016-08/rdock/2013.1/centos7.2_conda/build/data/scripts/dock.prm

>  <Rbt.Receptor>  (41) 
1uts.prm

>  <SCORE>  (41) 
-11.2878

>  <SCORE.INTER>  (41) 
-8.27853

>  <SCORE.INTER.CONST>  (41) 
1

>  <SCORE.INTER.POLAR>  (41) 
0

>  <SCORE.INTER.REPUL>  (41) 
0

>  <SCORE.INTER.ROT>  (41) 
11

>  <SCORE.INTER.VDW>  (41) 
-24.6785

>  <SCORE.INTER.norm>  (41) 
-0.275951

>  <SCORE.INTRA>  (41) 
-7.02986

>  <SCORE.INTRA.DIHEDRAL>  (41) 
-5.56894

>  <SCORE.INTRA.DIHEDRAL.0>  (41) 
14.7121

>  <SCORE.INTRA.POLAR>  (41) 
-0.749643

>  <SCORE.INTRA.POLAR.0>  (41) 
0

>  <SCORE.INTRA.REPUL>  (41) 
0

>  <SCORE.INTRA.REPUL.0>  (41) 
0

>  <SCORE.INTRA.VDW>  (41) 
-1.6966

>  <SCORE.INTRA.VDW.0>  (41) 
-0.649219

>  <SCORE.INTRA.norm>  (41) 
-0.234329

>  <SCORE.RESTR>  (41) 
0

>  <SCORE.RESTR.CAVITY>  (41) 
0

>  <SCORE.RESTR.norm>  (41) 
0

>  <SCORE.SYSTEM>  (41) 
4.02057

>  <SCORE.SYSTEM.CONST>  (41) 
0

>  <SCORE.SYSTEM.DIHEDRAL>  (41) 
1.61423

>  <SCORE.SYSTEM.POLAR>  (41) 
-0.0889822

>  <SCORE.SYSTEM.REPUL>  (41) 
1.02218

>  <SCORE.SYSTEM.VDW>  (41) 
-1.59489

>  <SCORE.SYSTEM.norm>  (41) 
0.134019

>  <SCORE.heavy>  (41) 
30

>  <SCORE.norm>  (41) 
-0.376261

>  <pdb_header>  (41) 
CRYST1    1.000    1.000    1.000  90.00  90.00  90.00 P 1           1

>  <Predicted_Rank>  (41) 
42.0

$$$$
1uts_h
     RDKit          3D

 35 38  0  0  0  0  0  0  0  0999 V2000
    4.5581    1.8344   19.1800 N   0  0  0  0  0  0  0  0  0  0  0  0
    4.5830    0.0864   17.4535 C   0  0  0  0  0  0  0  0  0  0  0  0
    2.3211    4.3220   16.5184 C   0  0  0  0  0  0  0  0  0  0  0  0
    3.6470    0.8459   16.5090 C   0  0  0  0  0  0  0  0  0  0  0  0
    2.6179    1.4898   17.2746 O   0  0  0  0  0  0  0  0  0  0  0  0
    5.4287    1.0840   18.2471 C   0  0  0  0  0  0  0  0  0  0  0  0
    3.5536    4.3109   15.6981 N   0  0  0  0  0  0  0  0  0  0  0  0
    4.6184    5.0904   16.3834 C   0  0  0  0  0  0  0  0  0  0  0  0
    5.2923    4.2208   17.4489 C   0  0  0  0  0  0  0  0  0  0  0  0
    6.3865    4.9852   18.0887 N   0  0  0  0  0  0  0  0  0  0  0  0
    7.3362    4.0360   18.7377 C   0  0  0  0  0  0  0  0  0  0  0  0
    5.8123    5.9184   19.0989 C   0  0  0  0  0  0  0  0  0  0  0  0
    8.4721    4.8267   19.4068 C   0  0  0  0  0  0  0  0  0  0  0  0
    6.9492    6.7080   19.7722 C   0  0  0  0  0  0  0  0  0  0  0  0
    7.8985    5.7593   20.4180 N   0  0  0  0  0  0  0  0  0  0  0  0
   -0.4783    1.2464   15.1331 C   0  0  0  0  0  0  0  0  0  0  0  0
   -5.1781    4.0123   11.7161 N   0  0  0  0  0  0  0  0  0  0  0  0
   -0.6664    2.5992   14.7617 C   0  0  0  0  0  0  0  0  0  0  0  0
    0.2441    3.5908   15.2144 C   0  0  0  0  0  0  0  0  0  0  0  0
    1.3460    3.2287   16.0371 C   0  0  0  0  0  0  0  0  0  0  0  0
    1.5245    1.8664   16.4238 C   0  0  0  0  0  0  0  0  0  0  0  0
    0.6116    0.8776   15.9651 C   0  0  0  0  0  0  0  0  0  0  0  0
   -6.1414    3.8254   12.7334 C   0  0  0  0  0  0  0  0  0  0  0  0
   -5.5336    3.3797   13.9290 C   0  0  0  0  0  0  0  0  0  0  0  0
   -3.0740    2.9237   14.4830 C   0  0  0  0  0  0  0  0  0  0  0  0
   -1.7559    2.9489   13.9516 C   0  0  0  0  0  0  0  0  0  0  0  0
   -1.5439    3.3359   12.5997 C   0  0  0  0  0  0  0  0  0  0  0  0
   -2.6482    3.6991   11.7823 C   0  0  0  0  0  0  0  0  0  0  0  0
   -3.9717    3.6861   12.3239 C   0  0  0  0  0  0  0  0  0  0  0  0
   -4.1834    3.3029   13.6609 C   0  0  0  0  0  0  0  0  0  0  0  0
   -5.3264    4.3121   10.7941 H   0  0  0  0  0  0  0  0  0  0  0  0
    3.9022    1.1844   19.6360 H   0  0  0  0  0  0  0  0  0  0  0  0
    5.1383    2.2938   19.8964 H   0  0  0  0  0  0  0  0  0  0  0  0
    3.3563    4.7296   14.7775 H   0  0  0  0  0  0  0  0  0  0  0  0
    8.6621    6.2905   20.8606 H   0  0  0  0  0  0  0  0  0  0  0  0
  1  6  1  0
  1 32  1  0
  1 33  1  0
  2  4  1  0
  2  6  1  0
  3  7  1  0
  3 20  1  0
  4  5  1  0
  5 21  1  0
  7  8  1  0
  7 34  1  0
  8  9  1  0
  9 10  1  0
 10 11  1  0
 10 12  1  0
 11 13  1  0
 12 14  1  0
 13 15  1  0
 14 15  1  0
 15 35  1  0
 16 18  2  0
 16 22  1  0
 17 23  1  0
 17 29  1  0
 17 31  1  0
 18 19  1  0
 18 26  1  0
 19 20  2  0
 20 21  1  0
 21 22  2  0
 23 24  2  0
 24 30  1  0
 25 26  2  0
 25 30  1  0
 26 27  1  0
 27 28  2  0
 28 29  1  0
 29 30  2  0
M  END
>  <CHROM.0>  (42) 
-178.81379976,66.78177055,49.81293385

>  <CHROM.1>  (42) 
43.50172419,-71.38086629,67.97178860,-164.62833212,-100.98997907,-162.97789833
-104.12557676,81.64214094,177.74113684,-159.63181507,71.53745798,1.87060267
3.36194678,16.18062684,-0.04189049,0.51392153,3.05419489

>  <Name>  (42) 
1uts_h

>  <RI>  (42) 
3.0543e+07

>  <Rbt.Current_Directory>  (42) 
/home/jta30/NA_complexes/1uts

>  <Rbt.Executable>  (42) 
rbdock ($Id: //depot/dev/client3/rdock/2013.1/src/exe/rbdock.cxx#4 $)

>  <Rbt.Library>  (42) 
libRbt.so (2013.1, Build901 2013/11/27)

>  <Rbt.Parameter_File>  (42) 
/software/dev_tools/swtree/cs400_centos7.2_pe2016-08/rdock/2013.1/centos7.2_conda/build/data/scripts/dock.prm

>  <Rbt.Receptor>  (42) 
1uts.prm

>  <SCORE>  (42) 
-7.85252

>  <SCORE.INTER>  (42) 
-6.50736

>  <SCORE.INTER.CONST>  (42) 
1

>  <SCORE.INTER.POLAR>  (42) 
0

>  <SCORE.INTER.REPUL>  (42) 
0

>  <SCORE.INTER.ROT>  (42) 
11

>  <SCORE.INTER.VDW>  (42) 
-22.9074

>  <SCORE.INTER.norm>  (42) 
-0.216912

>  <SCORE.INTRA>  (42) 
-4.13945

>  <SCORE.INTRA.DIHEDRAL>  (42) 
-4.44609

>  <SCORE.INTRA.DIHEDRAL.0>  (42) 
14.7121

>  <SCORE.INTRA.POLAR>  (42) 
0

>  <SCORE.INTRA.POLAR.0>  (42) 
0

>  <SCORE.INTRA.REPUL>  (42) 
0

>  <SCORE.INTRA.REPUL.0>  (42) 
0

>  <SCORE.INTRA.VDW>  (42) 
-1.91641

>  <SCORE.INTRA.VDW.0>  (42) 
-0.649219

>  <SCORE.INTRA.norm>  (42) 
-0.137982

>  <SCORE.RESTR>  (42) 
0

>  <SCORE.RESTR.CAVITY>  (42) 
0

>  <SCORE.RESTR.norm>  (42) 
0

>  <SCORE.SYSTEM>  (42) 
2.79429

>  <SCORE.SYSTEM.CONST>  (42) 
0

>  <SCORE.SYSTEM.DIHEDRAL>  (42) 
0.956437

>  <SCORE.SYSTEM.POLAR>  (42) 
-0.204884

>  <SCORE.SYSTEM.REPUL>  (42) 
0.763287

>  <SCORE.SYSTEM.VDW>  (42) 
-0.803754

>  <SCORE.SYSTEM.norm>  (42) 
0.0931431

>  <SCORE.heavy>  (42) 
30

>  <SCORE.norm>  (42) 
-0.261751

>  <pdb_header>  (42) 
CRYST1    1.000    1.000    1.000  90.00  90.00  90.00 P 1           1

>  <Predicted_Rank>  (42) 
43.0

$$$$
1uts_h
     RDKit          3D

 35 38  0  0  0  0  0  0  0  0999 V2000
    4.4578    3.8366   22.5254 N   0  0  0  0  0  0  0  0  0  0  0  0
    3.3425    4.6310   20.4853 C   0  0  0  0  0  0  0  0  0  0  0  0
    2.8935    4.1336   15.8302 C   0  0  0  0  0  0  0  0  0  0  0  0
    2.1416    4.4104   19.5608 C   0  0  0  0  0  0  0  0  0  0  0  0
    2.2262    5.3117   18.4471 O   0  0  0  0  0  0  0  0  0  0  0  0
    3.2835    3.6368   21.6465 C   0  0  0  0  0  0  0  0  0  0  0  0
    3.3708    2.9573   16.5921 N   0  0  0  0  0  0  0  0  0  0  0  0
    2.5396    1.7713   16.2551 C   0  0  0  0  0  0  0  0  0  0  0  0
    3.0046    0.5634   17.0738 C   0  0  0  0  0  0  0  0  0  0  0  0
    2.8844    0.8706   18.5167 N   0  0  0  0  0  0  0  0  0  0  0  0
    3.9480    0.1413   19.2656 C   0  0  0  0  0  0  0  0  0  0  0  0
    1.5350    0.4609   18.9984 C   0  0  0  0  0  0  0  0  0  0  0  0
    3.8239    0.4549   20.7654 C   0  0  0  0  0  0  0  0  0  0  0  0
    1.4109    0.7710   20.5011 C   0  0  0  0  0  0  0  0  0  0  0  0
    2.4749    0.0442   21.2481 N   0  0  0  0  0  0  0  0  0  0  0  0
   -1.2283    5.1275   16.9426 C   0  0  0  0  0  0  0  0  0  0  0  0
   -5.3122    3.7155   12.2284 N   0  0  0  0  0  0  0  0  0  0  0  0
   -0.9477    4.5793   15.6682 C   0  0  0  0  0  0  0  0  0  0  0  0
    0.3902    4.2600   15.3140 C   0  0  0  0  0  0  0  0  0  0  0  0
    1.4483    4.4862   16.2366 C   0  0  0  0  0  0  0  0  0  0  0  0
    1.1651    5.0542   17.5150 C   0  0  0  0  0  0  0  0  0  0  0  0
   -0.1765    5.3690   17.8652 C   0  0  0  0  0  0  0  0  0  0  0  0
   -6.2822    3.4868   13.2307 C   0  0  0  0  0  0  0  0  0  0  0  0
   -5.7047    3.5591   14.5186 C   0  0  0  0  0  0  0  0  0  0  0  0
   -3.2972    4.0505   15.2442 C   0  0  0  0  0  0  0  0  0  0  0  0
   -1.9960    4.3604   14.7634 C   0  0  0  0  0  0  0  0  0  0  0  0
   -1.7612    4.4548   13.3640 C   0  0  0  0  0  0  0  0  0  0  0  0
   -2.8267    4.2417   12.4481 C   0  0  0  0  0  0  0  0  0  0  0  0
   -4.1378    3.9438   12.9354 C   0  0  0  0  0  0  0  0  0  0  0  0
   -4.3718    3.8494   14.3195 C   0  0  0  0  0  0  0  0  0  0  0  0
   -5.4406    3.7204   11.2561 H   0  0  0  0  0  0  0  0  0  0  0  0
    4.4022    3.1903   23.3253 H   0  0  0  0  0  0  0  0  0  0  0  0
    5.3200    3.6499   21.9938 H   0  0  0  0  0  0  0  0  0  0  0  0
    3.3026    3.1521   17.6016 H   0  0  0  0  0  0  0  0  0  0  0  0
    2.3939    0.2602   22.2520 H   0  0  0  0  0  0  0  0  0  0  0  0
  1  6  1  0
  1 32  1  0
  1 33  1  0
  2  4  1  0
  2  6  1  0
  3  7  1  0
  3 20  1  0
  4  5  1  0
  5 21  1  0
  7  8  1  0
  7 34  1  0
  8  9  1  0
  9 10  1  0
 10 11  1  0
 10 12  1  0
 11 13  1  0
 12 14  1  0
 13 15  1  0
 14 15  1  0
 15 35  1  0
 16 18  2  0
 16 22  1  0
 17 23  1  0
 17 29  1  0
 17 31  1  0
 18 19  1  0
 18 26  1  0
 19 20  2  0
 20 21  1  0
 21 22  2  0
 23 24  2  0
 24 30  1  0
 25 26  2  0
 25 30  1  0
 26 27  1  0
 27 28  2  0
 28 29  1  0
 29 30  2  0
M  END
>  <CHROM.0>  (43) 
-38.26838656,27.56020229,-59.90823042

>  <CHROM.1>  (43) 
178.03813930,-177.91923531,179.01830556,63.12088319,-109.79334852,175.66269838
-110.32231950,-178.29889439,59.25965584,-148.73477864,-30.58433280,0.47715556
3.21363940,17.18586005,-0.24283561,-0.72192306,-0.07738253

>  <Name>  (43) 
1uts_h

>  <RI>  (43) 
3.0543e+07

>  <Rbt.Current_Directory>  (43) 
/home/jta30/NA_complexes/1uts

>  <Rbt.Executable>  (43) 
rbdock ($Id: //depot/dev/client3/rdock/2013.1/src/exe/rbdock.cxx#4 $)

>  <Rbt.Library>  (43) 
libRbt.so (2013.1, Build901 2013/11/27)

>  <Rbt.Parameter_File>  (43) 
/software/dev_tools/swtree/cs400_centos7.2_pe2016-08/rdock/2013.1/centos7.2_conda/build/data/scripts/dock.prm

>  <Rbt.Receptor>  (43) 
1uts.prm

>  <SCORE>  (43) 
-8.46832

>  <SCORE.INTER>  (43) 
-7.23069

>  <SCORE.INTER.CONST>  (43) 
1

>  <SCORE.INTER.POLAR>  (43) 
0

>  <SCORE.INTER.REPUL>  (43) 
0

>  <SCORE.INTER.ROT>  (43) 
11

>  <SCORE.INTER.VDW>  (43) 
-23.6307

>  <SCORE.INTER.norm>  (43) 
-0.241023

>  <SCORE.INTRA>  (43) 
-6.52026

>  <SCORE.INTRA.DIHEDRAL>  (43) 
-7.21579

>  <SCORE.INTRA.DIHEDRAL.0>  (43) 
14.7121

>  <SCORE.INTRA.POLAR>  (43) 
-0.00451039

>  <SCORE.INTRA.POLAR.0>  (43) 
0

>  <SCORE.INTRA.REPUL>  (43) 
0

>  <SCORE.INTRA.REPUL.0>  (43) 
0

>  <SCORE.INTRA.VDW>  (43) 
-2.89703

>  <SCORE.INTRA.VDW.0>  (43) 
-0.649219

>  <SCORE.INTRA.norm>  (43) 
-0.217342

>  <SCORE.RESTR>  (43) 
0

>  <SCORE.RESTR.CAVITY>  (43) 
0

>  <SCORE.RESTR.norm>  (43) 
0

>  <SCORE.SYSTEM>  (43) 
5.28263

>  <SCORE.SYSTEM.CONST>  (43) 
0

>  <SCORE.SYSTEM.DIHEDRAL>  (43) 
6.27532

>  <SCORE.SYSTEM.POLAR>  (43) 
-0.150809

>  <SCORE.SYSTEM.REPUL>  (43) 
0.452079

>  <SCORE.SYSTEM.VDW>  (43) 
0.397326

>  <SCORE.SYSTEM.norm>  (43) 
0.176088

>  <SCORE.heavy>  (43) 
30

>  <SCORE.norm>  (43) 
-0.282277

>  <pdb_header>  (43) 
CRYST1    1.000    1.000    1.000  90.00  90.00  90.00 P 1           1

>  <Predicted_Rank>  (43) 
44.0

$$$$
1uts_h
     RDKit          3D

 35 38  0  0  0  0  0  0  0  0999 V2000
    4.1137   -1.8285   17.5019 N   0  0  0  0  0  0  0  0  0  0  0  0
    4.1746    0.6278   17.5007 C   0  0  0  0  0  0  0  0  0  0  0  0
    1.9815    4.6077   16.1925 C   0  0  0  0  0  0  0  0  0  0  0  0
    2.8801    0.8406   16.7106 C   0  0  0  0  0  0  0  0  0  0  0  0
    2.1159    1.8900   17.3226 O   0  0  0  0  0  0  0  0  0  0  0  0
    4.8651   -0.6488   17.0171 C   0  0  0  0  0  0  0  0  0  0  0  0
    3.1138    4.4271   15.2558 N   0  0  0  0  0  0  0  0  0  0  0  0
    4.2874    3.8815   15.9878 C   0  0  0  0  0  0  0  0  0  0  0  0
    4.8832    4.9647   16.8917 C   0  0  0  0  0  0  0  0  0  0  0  0
    5.9448    4.3725   17.7362 N   0  0  0  0  0  0  0  0  0  0  0  0
    5.3179    3.5459   18.8076 C   0  0  0  0  0  0  0  0  0  0  0  0
    6.7664    5.4626   18.3341 C   0  0  0  0  0  0  0  0  0  0  0  0
    6.4176    2.9322   19.6892 C   0  0  0  0  0  0  0  0  0  0  0  0
    7.8656    4.8493   19.2202 C   0  0  0  0  0  0  0  0  0  0  0  0
    7.2389    4.0221   20.2884 N   0  0  0  0  0  0  0  0  0  0  0  0
   -1.1364    1.6226   15.4298 C   0  0  0  0  0  0  0  0  0  0  0  0
   -5.5786    4.2182   11.5374 N   0  0  0  0  0  0  0  0  0  0  0  0
   -1.2475    2.9232   14.8827 C   0  0  0  0  0  0  0  0  0  0  0  0
   -0.2338    3.8859   15.1342 C   0  0  0  0  0  0  0  0  0  0  0  0
    0.8938    3.5463   15.9311 C   0  0  0  0  0  0  0  0  0  0  0  0
    0.9957    2.2392   16.4953 C   0  0  0  0  0  0  0  0  0  0  0  0
   -0.0205    1.2788   16.2376 C   0  0  0  0  0  0  0  0  0  0  0  0
   -4.8318    4.4201   10.3545 C   0  0  0  0  0  0  0  0  0  0  0  0
   -3.4509    4.2328   10.5907 C   0  0  0  0  0  0  0  0  0  0  0  0
   -2.1949    3.5849   12.7277 C   0  0  0  0  0  0  0  0  0  0  0  0
   -2.3628    3.2511   14.0992 C   0  0  0  0  0  0  0  0  0  0  0  0
   -3.6641    3.2435   14.6727 C   0  0  0  0  0  0  0  0  0  0  0  0
   -4.7948    3.5671   13.8750 C   0  0  0  0  0  0  0  0  0  0  0  0
   -4.6241    3.8890   12.4922 C   0  0  0  0  0  0  0  0  0  0  0  0
   -3.3374    3.8976   11.9232 C   0  0  0  0  0  0  0  0  0  0  0  0
   -6.5500    4.2865   11.6553 H   0  0  0  0  0  0  0  0  0  0  0  0
    4.0139   -2.5105   16.7367 H   0  0  0  0  0  0  0  0  0  0  0  0
    4.6245   -2.2632   18.2835 H   0  0  0  0  0  0  0  0  0  0  0  0
    3.3594    5.3355   14.8359 H   0  0  0  0  0  0  0  0  0  0  0  0
    7.9772    3.6068   20.8745 H   0  0  0  0  0  0  0  0  0  0  0  0
  1  6  1  0
  1 32  1  0
  1 33  1  0
  2  4  1  0
  2  6  1  0
  3  7  1  0
  3 20  1  0
  4  5  1  0
  5 21  1  0
  7  8  1  0
  7 34  1  0
  8  9  1  0
  9 10  1  0
 10 11  1  0
 10 12  1  0
 11 13  1  0
 12 14  1  0
 13 15  1  0
 14 15  1  0
 15 35  1  0
 16 18  2  0
 16 22  1  0
 17 23  1  0
 17 29  1  0
 17 31  1  0
 18 19  1  0
 18 26  1  0
 19 20  2  0
 20 21  1  0
 21 22  2  0
 23 24  2  0
 24 30  1  0
 25 26  2  0
 25 30  1  0
 26 27  1  0
 27 28  2  0
 28 29  1  0
 29 30  2  0
M  END
>  <CHROM.0>  (44) 
-174.59515824,-86.97415407,-163.62913448

>  <CHROM.1>  (44) 
135.38227595,169.56339592,-72.95445266,-107.83442545,-97.75916722,171.71198172
-116.68425076,-71.84532265,173.22838275,-74.26391638,-116.21257541,1.47231640
3.09148538,15.83792094,0.16377536,0.52452285,2.92598061

>  <Name>  (44) 
1uts_h

>  <RI>  (44) 
3.0543e+07

>  <Rbt.Current_Directory>  (44) 
/home/jta30/NA_complexes/1uts

>  <Rbt.Executable>  (44) 
rbdock ($Id: //depot/dev/client3/rdock/2013.1/src/exe/rbdock.cxx#4 $)

>  <Rbt.Library>  (44) 
libRbt.so (2013.1, Build901 2013/11/27)

>  <Rbt.Parameter_File>  (44) 
/software/dev_tools/swtree/cs400_centos7.2_pe2016-08/rdock/2013.1/centos7.2_conda/build/data/scripts/dock.prm

>  <Rbt.Receptor>  (44) 
1uts.prm

>  <SCORE>  (44) 
-7.3232

>  <SCORE.INTER>  (44) 
-12.6732

>  <SCORE.INTER.CONST>  (44) 
1

>  <SCORE.INTER.POLAR>  (44) 
-1.18855

>  <SCORE.INTER.REPUL>  (44) 
0

>  <SCORE.INTER.ROT>  (44) 
11

>  <SCORE.INTER.VDW>  (44) 
-25.0321

>  <SCORE.INTER.norm>  (44) 
-0.422441

>  <SCORE.INTRA>  (44) 
-2.15138

>  <SCORE.INTRA.DIHEDRAL>  (44) 
-2.30746

>  <SCORE.INTRA.DIHEDRAL.0>  (44) 
14.7121

>  <SCORE.INTRA.POLAR>  (44) 
0

>  <SCORE.INTRA.POLAR.0>  (44) 
0

>  <SCORE.INTRA.REPUL>  (44) 
0

>  <SCORE.INTRA.REPUL.0>  (44) 
0

>  <SCORE.INTRA.VDW>  (44) 
-0.997652

>  <SCORE.INTRA.VDW.0>  (44) 
-0.649219

>  <SCORE.INTRA.norm>  (44) 
-0.0717128

>  <SCORE.RESTR>  (44) 
0

>  <SCORE.RESTR.CAVITY>  (44) 
0

>  <SCORE.RESTR.norm>  (44) 
0

>  <SCORE.SYSTEM>  (44) 
7.50141

>  <SCORE.SYSTEM.CONST>  (44) 
0

>  <SCORE.SYSTEM.DIHEDRAL>  (44) 
4.56273

>  <SCORE.SYSTEM.POLAR>  (44) 
-1.0133

>  <SCORE.SYSTEM.REPUL>  (44) 
1.51289

>  <SCORE.SYSTEM.VDW>  (44) 
1.10082

>  <SCORE.SYSTEM.norm>  (44) 
0.250047

>  <SCORE.heavy>  (44) 
30

>  <SCORE.norm>  (44) 
-0.244107

>  <pdb_header>  (44) 
CRYST1    1.000    1.000    1.000  90.00  90.00  90.00 P 1           1

>  <Predicted_Rank>  (44) 
45.0

$$$$
1uts_h
     RDKit          3D

 35 38  0  0  0  0  0  0  0  0999 V2000
    0.4327    7.9321   18.7066 N   0  0  0  0  0  0  0  0  0  0  0  0
    1.0552    5.6420   18.0703 C   0  0  0  0  0  0  0  0  0  0  0  0
    1.4115    3.0042   15.8456 C   0  0  0  0  0  0  0  0  0  0  0  0
   -0.2234    5.0110   18.6291 C   0  0  0  0  0  0  0  0  0  0  0  0
   -0.3909    3.6997   18.0701 O   0  0  0  0  0  0  0  0  0  0  0  0
    1.4341    6.8615   18.9125 C   0  0  0  0  0  0  0  0  0  0  0  0
    1.4381    1.6660   16.4784 N   0  0  0  0  0  0  0  0  0  0  0  0
    2.8264    1.1336   16.4661 C   0  0  0  0  0  0  0  0  0  0  0  0
    3.6029    1.6843   17.6658 C   0  0  0  0  0  0  0  0  0  0  0  0
    3.7417    3.1518   17.5312 N   0  0  0  0  0  0  0  0  0  0  0  0
    4.7312    3.4564   16.4579 C   0  0  0  0  0  0  0  0  0  0  0  0
    4.1904    3.7270   18.8307 C   0  0  0  0  0  0  0  0  0  0  0  0
    4.8808    4.9799   16.3178 C   0  0  0  0  0  0  0  0  0  0  0  0
    4.3442    5.2522   18.6906 C   0  0  0  0  0  0  0  0  0  0  0  0
    5.3308    5.5556   17.6169 N   0  0  0  0  0  0  0  0  0  0  0  0
   -2.7164    4.3118   15.1634 C   0  0  0  0  0  0  0  0  0  0  0  0
   -4.0923    4.5336    8.9243 N   0  0  0  0  0  0  0  0  0  0  0  0
   -1.8769    4.0040   14.0662 C   0  0  0  0  0  0  0  0  0  0  0  0
   -0.5402    3.5813   14.2943 C   0  0  0  0  0  0  0  0  0  0  0  0
   -0.0434    3.4633   15.6214 C   0  0  0  0  0  0  0  0  0  0  0  0
   -0.8865    3.7899   16.7258 C   0  0  0  0  0  0  0  0  0  0  0  0
   -2.2247    4.2095   16.4915 C   0  0  0  0  0  0  0  0  0  0  0  0
   -5.4499    4.5295    9.3175 C   0  0  0  0  0  0  0  0  0  0  0  0
   -5.5699    4.3783   10.7176 C   0  0  0  0  0  0  0  0  0  0  0  0
   -3.7760    4.1578   12.5335 C   0  0  0  0  0  0  0  0  0  0  0  0
   -2.3733    4.1240   12.7605 C   0  0  0  0  0  0  0  0  0  0  0  0
   -1.4750    4.2192   11.6623 C   0  0  0  0  0  0  0  0  0  0  0  0
   -1.9793    4.3502   10.3401 C   0  0  0  0  0  0  0  0  0  0  0  0
   -3.3909    4.3979   10.1163 C   0  0  0  0  0  0  0  0  0  0  0  0
   -4.2812    4.3032   11.2016 C   0  0  0  0  0  0  0  0  0  0  0  0
   -3.7281    4.6210    8.0178 H   0  0  0  0  0  0  0  0  0  0  0  0
    0.5597    8.6633   19.4207 H   0  0  0  0  0  0  0  0  0  0  0  0
    0.5571    8.3428   17.7703 H   0  0  0  0  0  0  0  0  0  0  0  0
    0.8183    1.0284   15.9579 H   0  0  0  0  0  0  0  0  0  0  0  0
    5.4253    6.5768   17.5203 H   0  0  0  0  0  0  0  0  0  0  0  0
  1  6  1  0
  1 32  1  0
  1 33  1  0
  2  4  1  0
  2  6  1  0
  3  7  1  0
  3 20  1  0
  4  5  1  0
  5 21  1  0
  7  8  1  0
  7 34  1  0
  8  9  1  0
  9 10  1  0
 10 11  1  0
 10 12  1  0
 11 13  1  0
 12 14  1  0
 13 15  1  0
 14 15  1  0
 15 35  1  0
 16 18  2  0
 16 22  1  0
 17 23  1  0
 17 29  1  0
 17 31  1  0
 18 19  1  0
 18 26  1  0
 19 20  2  0
 20 21  1  0
 21 22  2  0
 23 24  2  0
 24 30  1  0
 25 26  2  0
 25 30  1  0
 26 27  1  0
 27 28  2  0
 28 29  1  0
 29 30  2  0
M  END
>  <CHROM.0>  (45) 
59.45684979,-87.86209909,-54.09591859

>  <CHROM.1>  (45) 
167.30366722,-165.49843271,-68.40109799,169.92914521,-112.26194395,-77.28886535
109.16718135,83.84761009,-64.70398161,-72.75729101,-18.70598503,0.12584008
4.19192442,15.31891635,0.64998310,-0.45990187,1.04306722

>  <Name>  (45) 
1uts_h

>  <RI>  (45) 
3.0543e+07

>  <Rbt.Current_Directory>  (45) 
/home/jta30/NA_complexes/1uts

>  <Rbt.Executable>  (45) 
rbdock ($Id: //depot/dev/client3/rdock/2013.1/src/exe/rbdock.cxx#4 $)

>  <Rbt.Library>  (45) 
libRbt.so (2013.1, Build901 2013/11/27)

>  <Rbt.Parameter_File>  (45) 
/software/dev_tools/swtree/cs400_centos7.2_pe2016-08/rdock/2013.1/centos7.2_conda/build/data/scripts/dock.prm

>  <Rbt.Receptor>  (45) 
1uts.prm

>  <SCORE>  (45) 
-9.6207

>  <SCORE.INTER>  (45) 
-10.9148

>  <SCORE.INTER.CONST>  (45) 
1

>  <SCORE.INTER.POLAR>  (45) 
-0.632456

>  <SCORE.INTER.REPUL>  (45) 
0

>  <SCORE.INTER.ROT>  (45) 
11

>  <SCORE.INTER.VDW>  (45) 
-25.1645

>  <SCORE.INTER.norm>  (45) 
-0.363828

>  <SCORE.INTRA>  (45) 
-3.35834

>  <SCORE.INTRA.DIHEDRAL>  (45) 
-4.60917

>  <SCORE.INTRA.DIHEDRAL.0>  (45) 
14.7121

>  <SCORE.INTRA.POLAR>  (45) 
0

>  <SCORE.INTRA.POLAR.0>  (45) 
0

>  <SCORE.INTRA.REPUL>  (45) 
0

>  <SCORE.INTRA.REPUL.0>  (45) 
0

>  <SCORE.INTRA.VDW>  (45) 
-1.05375

>  <SCORE.INTRA.VDW.0>  (45) 
-0.649219

>  <SCORE.INTRA.norm>  (45) 
-0.111945

>  <SCORE.RESTR>  (45) 
0

>  <SCORE.RESTR.CAVITY>  (45) 
0

>  <SCORE.RESTR.norm>  (45) 
0

>  <SCORE.SYSTEM>  (45) 
4.65247

>  <SCORE.SYSTEM.CONST>  (45) 
0

>  <SCORE.SYSTEM.DIHEDRAL>  (45) 
3.54575

>  <SCORE.SYSTEM.POLAR>  (45) 
-0.90477

>  <SCORE.SYSTEM.REPUL>  (45) 
0.902179

>  <SCORE.SYSTEM.VDW>  (45) 
1.44492

>  <SCORE.SYSTEM.norm>  (45) 
0.155082

>  <SCORE.heavy>  (45) 
30

>  <SCORE.norm>  (45) 
-0.32069

>  <pdb_header>  (45) 
CRYST1    1.000    1.000    1.000  90.00  90.00  90.00 P 1           1

>  <Predicted_Rank>  (45) 
46.0

$$$$
1uts_h
     RDKit          3D

 35 38  0  0  0  0  0  0  0  0999 V2000
    0.6529    7.4671   18.3964 N   0  0  0  0  0  0  0  0  0  0  0  0
    0.0425    5.1135   18.0424 C   0  0  0  0  0  0  0  0  0  0  0  0
    1.2211    3.1885   15.4890 C   0  0  0  0  0  0  0  0  0  0  0  0
   -0.8115    3.9618   18.5803 C   0  0  0  0  0  0  0  0  0  0  0  0
   -0.6241    2.8036   17.7536 O   0  0  0  0  0  0  0  0  0  0  0  0
   -0.0672    6.3146   18.9834 C   0  0  0  0  0  0  0  0  0  0  0  0
    1.8006    4.5185   15.1936 N   0  0  0  0  0  0  0  0  0  0  0  0
    3.2310    4.5429   15.5989 C   0  0  0  0  0  0  0  0  0  0  0  0
    3.3383    4.4671   17.1248 C   0  0  0  0  0  0  0  0  0  0  0  0
    2.8821    3.1364   17.5852 N   0  0  0  0  0  0  0  0  0  0  0  0
    2.6626    3.1741   19.0597 C   0  0  0  0  0  0  0  0  0  0  0  0
    3.9097    2.1144   17.2383 C   0  0  0  0  0  0  0  0  0  0  0  0
    2.1923    1.7924   19.5422 C   0  0  0  0  0  0  0  0  0  0  0  0
    3.4415    0.7309   17.7243 C   0  0  0  0  0  0  0  0  0  0  0  0
    3.2203    0.7700   19.1967 N   0  0  0  0  0  0  0  0  0  0  0  0
   -3.1312    3.2987   14.9786 C   0  0  0  0  0  0  0  0  0  0  0  0
   -4.7280    4.5469    8.9133 N   0  0  0  0  0  0  0  0  0  0  0  0
   -2.2789    3.5062   13.8678 C   0  0  0  0  0  0  0  0  0  0  0  0
   -0.8695    3.4697   14.0402 C   0  0  0  0  0  0  0  0  0  0  0  0
   -0.3118    3.2222   15.3246 C   0  0  0  0  0  0  0  0  0  0  0  0
   -1.1729    3.0294   16.4464 C   0  0  0  0  0  0  0  0  0  0  0  0
   -2.5830    3.0640   16.2672 C   0  0  0  0  0  0  0  0  0  0  0  0
   -6.0577    4.6189    9.3872 C   0  0  0  0  0  0  0  0  0  0  0  0
   -6.1112    4.3833   10.7797 C   0  0  0  0  0  0  0  0  0  0  0  0
   -4.2422    3.9061   12.4659 C   0  0  0  0  0  0  0  0  0  0  0  0
   -2.8361    3.7511   12.6048 C   0  0  0  0  0  0  0  0  0  0  0  0
   -1.9956    3.8519   11.4621 C   0  0  0  0  0  0  0  0  0  0  0  0
   -2.5608    4.1093   10.1839 C   0  0  0  0  0  0  0  0  0  0  0  0
   -3.9744    4.2785   10.0496 C   0  0  0  0  0  0  0  0  0  0  0  0
   -4.8076    4.1786   11.1789 C   0  0  0  0  0  0  0  0  0  0  0  0
   -4.4091    4.6674    7.9936 H   0  0  0  0  0  0  0  0  0  0  0  0
    0.3978    7.5618   17.4031 H   0  0  0  0  0  0  0  0  0  0  0  0
    0.3927    8.3270   18.9001 H   0  0  0  0  0  0  0  0  0  0  0  0
    1.2814    5.2415   15.7127 H   0  0  0  0  0  0  0  0  0  0  0  0
    2.8995   -0.1548   19.5173 H   0  0  0  0  0  0  0  0  0  0  0  0
  1  6  1  0
  1 32  1  0
  1 33  1  0
  2  4  1  0
  2  6  1  0
  3  7  1  0
  3 20  1  0
  4  5  1  0
  5 21  1  0
  7  8  1  0
  7 34  1  0
  8  9  1  0
  9 10  1  0
 10 11  1  0
 10 12  1  0
 11 13  1  0
 12 14  1  0
 13 15  1  0
 14 15  1  0
 15 35  1  0
 16 18  2  0
 16 22  1  0
 17 23  1  0
 17 29  1  0
 17 31  1  0
 18 19  1  0
 18 26  1  0
 19 20  2  0
 20 21  1  0
 21 22  2  0
 23 24  2  0
 24 30  1  0
 25 26  2  0
 25 30  1  0
 26 27  1  0
 27 28  2  0
 28 29  1  0
 29 30  2  0
M  END
>  <CHROM.0>  (46) 
56.52699978,-87.55021784,-58.77481978

>  <CHROM.1>  (46) 
46.30277507,-175.50398239,-174.62097504,169.44547560,64.35481305,-67.37843797
107.74924804,-68.15610933,67.54502109,-166.00892978,5.50030632,-0.50739526
3.72002954,15.30250722,0.66918729,-0.55963166,1.12251686

>  <Name>  (46) 
1uts_h

>  <RI>  (46) 
3.0543e+07

>  <Rbt.Current_Directory>  (46) 
/home/jta30/NA_complexes/1uts

>  <Rbt.Executable>  (46) 
rbdock ($Id: //depot/dev/client3/rdock/2013.1/src/exe/rbdock.cxx#4 $)

>  <Rbt.Library>  (46) 
libRbt.so (2013.1, Build901 2013/11/27)

>  <Rbt.Parameter_File>  (46) 
/software/dev_tools/swtree/cs400_centos7.2_pe2016-08/rdock/2013.1/centos7.2_conda/build/data/scripts/dock.prm

>  <Rbt.Receptor>  (46) 
1uts.prm

>  <SCORE>  (46) 
-10.8405

>  <SCORE.INTER>  (46) 
-12.5547

>  <SCORE.INTER.CONST>  (46) 
1

>  <SCORE.INTER.POLAR>  (46) 
-1.4745

>  <SCORE.INTER.REPUL>  (46) 
0

>  <SCORE.INTER.ROT>  (46) 
11

>  <SCORE.INTER.VDW>  (46) 
-23.9414

>  <SCORE.INTER.norm>  (46) 
-0.418491

>  <SCORE.INTRA>  (46) 
-2.95385

>  <SCORE.INTRA.DIHEDRAL>  (46) 
-7.11086

>  <SCORE.INTRA.DIHEDRAL.0>  (46) 
14.7121

>  <SCORE.INTRA.POLAR>  (46) 
0

>  <SCORE.INTRA.POLAR.0>  (46) 
0

>  <SCORE.INTRA.REPUL>  (46) 
0

>  <SCORE.INTRA.REPUL.0>  (46) 
0

>  <SCORE.INTRA.VDW>  (46) 
0.601583

>  <SCORE.INTRA.VDW.0>  (46) 
-0.649219

>  <SCORE.INTRA.norm>  (46) 
-0.0984615

>  <SCORE.RESTR>  (46) 
0

>  <SCORE.RESTR.CAVITY>  (46) 
0

>  <SCORE.RESTR.norm>  (46) 
0

>  <SCORE.SYSTEM>  (46) 
4.6681

>  <SCORE.SYSTEM.CONST>  (46) 
0

>  <SCORE.SYSTEM.DIHEDRAL>  (46) 
3.38714

>  <SCORE.SYSTEM.POLAR>  (46) 
-0.895075

>  <SCORE.SYSTEM.REPUL>  (46) 
0.890693

>  <SCORE.SYSTEM.VDW>  (46) 
1.56433

>  <SCORE.SYSTEM.norm>  (46) 
0.155603

>  <SCORE.heavy>  (46) 
30

>  <SCORE.norm>  (46) 
-0.361349

>  <pdb_header>  (46) 
CRYST1    1.000    1.000    1.000  90.00  90.00  90.00 P 1           1

>  <Predicted_Rank>  (46) 
47.0

$$$$
1uts_h
     RDKit          3D

 35 38  0  0  0  0  0  0  0  0999 V2000
    4.8467   -0.8672   16.4575 N   0  0  0  0  0  0  0  0  0  0  0  0
    3.7343    0.4625   18.1987 C   0  0  0  0  0  0  0  0  0  0  0  0
    2.0847    4.4526   16.1422 C   0  0  0  0  0  0  0  0  0  0  0  0
    2.5729    0.7895   17.2557 C   0  0  0  0  0  0  0  0  0  0  0  0
    1.9015    1.9704   17.7190 O   0  0  0  0  0  0  0  0  0  0  0  0
    4.3157   -0.9060   17.8388 C   0  0  0  0  0  0  0  0  0  0  0  0
    3.3420    3.6755   16.2289 N   0  0  0  0  0  0  0  0  0  0  0  0
    4.4551    4.5687   16.6462 C   0  0  0  0  0  0  0  0  0  0  0  0
    4.5648    4.5805   18.1737 C   0  0  0  0  0  0  0  0  0  0  0  0
    3.3178    5.1287   18.7529 N   0  0  0  0  0  0  0  0  0  0  0  0
    3.5546    6.5345   19.1904 C   0  0  0  0  0  0  0  0  0  0  0  0
    2.8988    4.2876   19.9096 C   0  0  0  0  0  0  0  0  0  0  0  0
    2.2625    7.1061   19.7962 C   0  0  0  0  0  0  0  0  0  0  0  0
    1.6070    4.8612   20.5194 C   0  0  0  0  0  0  0  0  0  0  0  0
    1.8436    6.2660   20.9539 N   0  0  0  0  0  0  0  0  0  0  0  0
   -1.3849    1.7870   15.8756 C   0  0  0  0  0  0  0  0  0  0  0  0
   -5.5232    4.2287   11.5651 N   0  0  0  0  0  0  0  0  0  0  0  0
   -1.3437    2.9796   15.1146 C   0  0  0  0  0  0  0  0  0  0  0  0
   -0.2166    3.8391   15.2060 C   0  0  0  0  0  0  0  0  0  0  0  0
    0.8720    3.5039   16.0572 C   0  0  0  0  0  0  0  0  0  0  0  0
    0.8211    2.3090   16.8362 C   0  0  0  0  0  0  0  0  0  0  0  0
   -0.3083    1.4509   16.7382 C   0  0  0  0  0  0  0  0  0  0  0  0
   -4.7496    4.2437   10.3823 C   0  0  0  0  0  0  0  0  0  0  0  0
   -3.3902    3.9788   10.6643 C   0  0  0  0  0  0  0  0  0  0  0  0
   -2.2125    3.4734   12.8828 C   0  0  0  0  0  0  0  0  0  0  0  0
   -2.4213    3.3042   14.2786 C   0  0  0  0  0  0  0  0  0  0  0  0
   -3.7256    3.4579   14.8239 C   0  0  0  0  0  0  0  0  0  0  0  0
   -4.8188    3.7778   13.9741 C   0  0  0  0  0  0  0  0  0  0  0  0
   -4.6079    3.9337   12.5683 C   0  0  0  0  0  0  0  0  0  0  0  0
   -3.3181    3.7826   12.0270 C   0  0  0  0  0  0  0  0  0  0  0  0
   -6.4875    4.3830   11.6559 H   0  0  0  0  0  0  0  0  0  0  0  0
    5.7132   -1.4215   16.4069 H   0  0  0  0  0  0  0  0  0  0  0  0
    4.1494   -1.2622   15.8106 H   0  0  0  0  0  0  0  0  0  0  0  0
    3.5548    3.2641   15.3085 H   0  0  0  0  0  0  0  0  0  0  0  0
    0.9752    6.6493   21.3539 H   0  0  0  0  0  0  0  0  0  0  0  0
  1  6  1  0
  1 32  1  0
  1 33  1  0
  2  4  1  0
  2  6  1  0
  3  7  1  0
  3 20  1  0
  4  5  1  0
  5 21  1  0
  7  8  1  0
  7 34  1  0
  8  9  1  0
  9 10  1  0
 10 11  1  0
 10 12  1  0
 11 13  1  0
 12 14  1  0
 13 15  1  0
 14 15  1  0
 15 35  1  0
 16 18  2  0
 16 22  1  0
 17 23  1  0
 17 29  1  0
 17 31  1  0
 18 19  1  0
 18 26  1  0
 19 20  2  0
 20 21  1  0
 21 22  2  0
 23 24  2  0
 24 30  1  0
 25 26  2  0
 25 30  1  0
 26 27  1  0
 27 28  2  0
 28 29  1  0
 29 30  2  0
M  END
>  <CHROM.0>  (47) 
-176.95733545,-84.47764026,-53.54317450

>  <CHROM.1>  (47) 
142.13019461,171.28870103,61.85439580,-166.00974772,-141.35686806,179.03950540
-113.31280541,90.08561761,-62.42013176,-103.07138648,-120.81264701,0.56973128
3.42199361,16.24124369,-0.31392165,0.63339395,-2.60251635

>  <Name>  (47) 
1uts_h

>  <RI>  (47) 
3.0543e+07

>  <Rbt.Current_Directory>  (47) 
/home/jta30/NA_complexes/1uts

>  <Rbt.Executable>  (47) 
rbdock ($Id: //depot/dev/client3/rdock/2013.1/src/exe/rbdock.cxx#4 $)

>  <Rbt.Library>  (47) 
libRbt.so (2013.1, Build901 2013/11/27)

>  <Rbt.Parameter_File>  (47) 
/software/dev_tools/swtree/cs400_centos7.2_pe2016-08/rdock/2013.1/centos7.2_conda/build/data/scripts/dock.prm

>  <Rbt.Receptor>  (47) 
1uts.prm

>  <SCORE>  (47) 
-10.1556

>  <SCORE.INTER>  (47) 
-10.3238

>  <SCORE.INTER.CONST>  (47) 
1

>  <SCORE.INTER.POLAR>  (47) 
-1.07532

>  <SCORE.INTER.REPUL>  (47) 
0

>  <SCORE.INTER.ROT>  (47) 
11

>  <SCORE.INTER.VDW>  (47) 
-23.0677

>  <SCORE.INTER.norm>  (47) 
-0.344126

>  <SCORE.INTRA>  (47) 
-4.59623

>  <SCORE.INTRA.DIHEDRAL>  (47) 
-3.16886

>  <SCORE.INTRA.DIHEDRAL.0>  (47) 
14.7121

>  <SCORE.INTRA.POLAR>  (47) 
0

>  <SCORE.INTRA.POLAR.0>  (47) 
0

>  <SCORE.INTRA.REPUL>  (47) 
0

>  <SCORE.INTRA.REPUL.0>  (47) 
0

>  <SCORE.INTRA.VDW>  (47) 
-3.0118

>  <SCORE.INTRA.VDW.0>  (47) 
-0.649219

>  <SCORE.INTRA.norm>  (47) 
-0.153208

>  <SCORE.RESTR>  (47) 
0

>  <SCORE.RESTR.CAVITY>  (47) 
0

>  <SCORE.RESTR.norm>  (47) 
0

>  <SCORE.SYSTEM>  (47) 
4.7644

>  <SCORE.SYSTEM.CONST>  (47) 
0

>  <SCORE.SYSTEM.DIHEDRAL>  (47) 
3.0093

>  <SCORE.SYSTEM.POLAR>  (47) 
-0.975844

>  <SCORE.SYSTEM.REPUL>  (47) 
0.878548

>  <SCORE.SYSTEM.VDW>  (47) 
2.18489

>  <SCORE.SYSTEM.norm>  (47) 
0.158813

>  <SCORE.heavy>  (47) 
30

>  <SCORE.norm>  (47) 
-0.338521

>  <pdb_header>  (47) 
CRYST1    1.000    1.000    1.000  90.00  90.00  90.00 P 1           1

>  <Predicted_Rank>  (47) 
48.0

$$$$
1uts_h
     RDKit          3D

 35 38  0  0  0  0  0  0  0  0999 V2000
    2.6330    2.2464   20.5930 N   0  0  0  0  0  0  0  0  0  0  0  0
    2.3240    4.6634   20.2771 C   0  0  0  0  0  0  0  0  0  0  0  0
    0.5421    4.3811   16.0294 C   0  0  0  0  0  0  0  0  0  0  0  0
    0.9130    4.4252   19.7318 C   0  0  0  0  0  0  0  0  0  0  0  0
    0.5932    5.4468   18.7758 O   0  0  0  0  0  0  0  0  0  0  0  0
    2.6800    3.5596   21.2747 C   0  0  0  0  0  0  0  0  0  0  0  0
    0.7257    2.9237   15.8440 N   0  0  0  0  0  0  0  0  0  0  0  0
    1.6814    2.4062   16.8588 C   0  0  0  0  0  0  0  0  0  0  0  0
    1.9759    0.9281   16.5865 C   0  0  0  0  0  0  0  0  0  0  0  0
    3.0272    0.4560   17.5154 N   0  0  0  0  0  0  0  0  0  0  0  0
    3.9431   -0.4720   16.7916 C   0  0  0  0  0  0  0  0  0  0  0  0
    2.3908   -0.2374   18.6708 C   0  0  0  0  0  0  0  0  0  0  0  0
    5.0343   -0.9675   17.7544 C   0  0  0  0  0  0  0  0  0  0  0  0
    3.4827   -0.7373   19.6337 C   0  0  0  0  0  0  0  0  0  0  0  0
    4.3984   -1.6622   18.9096 N   0  0  0  0  0  0  0  0  0  0  0  0
   -3.1363    5.1729   18.2782 C   0  0  0  0  0  0  0  0  0  0  0  0
   -8.1072    3.6552   14.3959 N   0  0  0  0  0  0  0  0  0  0  0  0
   -3.2044    4.6776   16.9541 C   0  0  0  0  0  0  0  0  0  0  0  0
   -2.0086    4.4237   16.2308 C   0  0  0  0  0  0  0  0  0  0  0  0
   -0.7431    4.6623   16.8337 C   0  0  0  0  0  0  0  0  0  0  0  0
   -0.6769    5.1771   18.1633 C   0  0  0  0  0  0  0  0  0  0  0  0
   -1.8772    5.4266   18.8835 C   0  0  0  0  0  0  0  0  0  0  0  0
   -7.5807    3.3737   13.1147 C   0  0  0  0  0  0  0  0  0  0  0  0
   -6.1735    3.5054   13.1068 C   0  0  0  0  0  0  0  0  0  0  0  0
   -4.5423    4.1139   14.9864 C   0  0  0  0  0  0  0  0  0  0  0  0
   -4.4558    4.4461   16.3658 C   0  0  0  0  0  0  0  0  0  0  0  0
   -5.6394    4.5364   17.1488 C   0  0  0  0  0  0  0  0  0  0  0  0
   -6.9065    4.2924   16.5534 C   0  0  0  0  0  0  0  0  0  0  0  0
   -6.9892    3.9447   15.1687 C   0  0  0  0  0  0  0  0  0  0  0  0
   -5.8193    3.8556   14.3923 C   0  0  0  0  0  0  0  0  0  0  0  0
   -9.0467    3.6409   14.6772 H   0  0  0  0  0  0  0  0  0  0  0  0
    3.2245    2.2753   19.7504 H   0  0  0  0  0  0  0  0  0  0  0  0
    2.9810    1.5162   21.2306 H   0  0  0  0  0  0  0  0  0  0  0  0
    1.0928    2.7420   14.8985 H   0  0  0  0  0  0  0  0  0  0  0  0
    5.1324   -1.9884   19.5545 H   0  0  0  0  0  0  0  0  0  0  0  0
  1  6  1  0
  1 32  1  0
  1 33  1  0
  2  4  1  0
  2  6  1  0
  3  7  1  0
  3 20  1  0
  4  5  1  0
  5 21  1  0
  7  8  1  0
  7 34  1  0
  8  9  1  0
  9 10  1  0
 10 11  1  0
 10 12  1  0
 11 13  1  0
 12 14  1  0
 13 15  1  0
 14 15  1  0
 15 35  1  0
 16 18  2  0
 16 22  1  0
 17 23  1  0
 17 29  1  0
 17 31  1  0
 18 19  1  0
 18 26  1  0
 19 20  2  0
 20 21  1  0
 21 22  2  0
 23 24  2  0
 24 30  1  0
 25 26  2  0
 25 30  1  0
 26 27  1  0
 27 28  2  0
 28 29  1  0
 29 30  2  0
M  END
>  <CHROM.0>  (48) 
-179.61818379,66.24673927,49.82610214

>  <CHROM.1>  (48) 
53.32678303,-178.81319770,60.15348123,-98.20092709,-70.06971668,174.86989414
-104.18152728,-174.62495485,174.42327311,-141.34148526,171.96160155,-0.79368794
2.98842623,17.28565292,-0.04013587,-0.47937599,0.66109621

>  <Name>  (48) 
1uts_h

>  <RI>  (48) 
3.0543e+07

>  <Rbt.Current_Directory>  (48) 
/home/jta30/NA_complexes/1uts

>  <Rbt.Executable>  (48) 
rbdock ($Id: //depot/dev/client3/rdock/2013.1/src/exe/rbdock.cxx#4 $)

>  <Rbt.Library>  (48) 
libRbt.so (2013.1, Build901 2013/11/27)

>  <Rbt.Parameter_File>  (48) 
/software/dev_tools/swtree/cs400_centos7.2_pe2016-08/rdock/2013.1/centos7.2_conda/build/data/scripts/dock.prm

>  <Rbt.Receptor>  (48) 
1uts.prm

>  <SCORE>  (48) 
-8.35649

>  <SCORE.INTER>  (48) 
-6.79524

>  <SCORE.INTER.CONST>  (48) 
1

>  <SCORE.INTER.POLAR>  (48) 
0

>  <SCORE.INTER.REPUL>  (48) 
0.00480183

>  <SCORE.INTER.ROT>  (48) 
11

>  <SCORE.INTER.VDW>  (48) 
-23.2193

>  <SCORE.INTER.norm>  (48) 
-0.226508

>  <SCORE.INTRA>  (48) 
-4.35514

>  <SCORE.INTRA.DIHEDRAL>  (48) 
-4.82667

>  <SCORE.INTRA.DIHEDRAL.0>  (48) 
14.7121

>  <SCORE.INTRA.POLAR>  (48) 
0

>  <SCORE.INTRA.POLAR.0>  (48) 
0

>  <SCORE.INTRA.REPUL>  (48) 
0

>  <SCORE.INTRA.REPUL.0>  (48) 
0

>  <SCORE.INTRA.VDW>  (48) 
-1.9418

>  <SCORE.INTRA.VDW.0>  (48) 
-0.649219

>  <SCORE.INTRA.norm>  (48) 
-0.145171

>  <SCORE.RESTR>  (48) 
0

>  <SCORE.RESTR.CAVITY>  (48) 
0

>  <SCORE.RESTR.norm>  (48) 
0

>  <SCORE.SYSTEM>  (48) 
2.79389

>  <SCORE.SYSTEM.CONST>  (48) 
0

>  <SCORE.SYSTEM.DIHEDRAL>  (48) 
0.916038

>  <SCORE.SYSTEM.POLAR>  (48) 
-0.193524

>  <SCORE.SYSTEM.REPUL>  (48) 
0.763564

>  <SCORE.SYSTEM.VDW>  (48) 
-0.823967

>  <SCORE.SYSTEM.norm>  (48) 
0.0931296

>  <SCORE.heavy>  (48) 
30

>  <SCORE.norm>  (48) 
-0.27855

>  <pdb_header>  (48) 
CRYST1    1.000    1.000    1.000  90.00  90.00  90.00 P 1           1

>  <Predicted_Rank>  (48) 
49.0

$$$$
1uts_h
     RDKit          3D

 35 38  0  0  0  0  0  0  0  0999 V2000
    3.7466    2.2123   19.7722 N   0  0  0  0  0  0  0  0  0  0  0  0
    4.5944    4.0978   18.4442 C   0  0  0  0  0  0  0  0  0  0  0  0
    2.0193    1.5826   16.1758 C   0  0  0  0  0  0  0  0  0  0  0  0
    3.4298    4.2796   17.4666 C   0  0  0  0  0  0  0  0  0  0  0  0
    2.2164    3.8215   18.0810 O   0  0  0  0  0  0  0  0  0  0  0  0
    4.7609    2.6126   18.7710 C   0  0  0  0  0  0  0  0  0  0  0  0
    2.0276    0.8990   17.4891 N   0  0  0  0  0  0  0  0  0  0  0  0
    2.7673   -0.3863   17.3800 C   0  0  0  0  0  0  0  0  0  0  0  0
    2.6266   -1.1770   18.6840 C   0  0  0  0  0  0  0  0  0  0  0  0
    3.2379   -2.5147   18.5174 N   0  0  0  0  0  0  0  0  0  0  0  0
    2.3468   -3.3617   17.6734 C   0  0  0  0  0  0  0  0  0  0  0  0
    3.4334   -3.1389   19.8565 C   0  0  0  0  0  0  0  0  0  0  0  0
    2.9768   -4.7533   17.5014 C   0  0  0  0  0  0  0  0  0  0  0  0
    4.0608   -4.5341   19.6852 C   0  0  0  0  0  0  0  0  0  0  0  0
    3.1714   -5.3787   18.8402 N   0  0  0  0  0  0  0  0  0  0  0  0
   -0.8519    4.8949   16.1665 C   0  0  0  0  0  0  0  0  0  0  0  0
   -4.9719    3.9531   11.2715 N   0  0  0  0  0  0  0  0  0  0  0  0
   -0.9712    3.8471   15.2225 C   0  0  0  0  0  0  0  0  0  0  0  0
   -0.0371    2.7770   15.2307 C   0  0  0  0  0  0  0  0  0  0  0  0
    1.0156    2.7533   16.1862 C   0  0  0  0  0  0  0  0  0  0  0  0
    1.1437    3.8192   17.1268 C   0  0  0  0  0  0  0  0  0  0  0  0
    0.2040    4.8861   17.1158 C   0  0  0  0  0  0  0  0  0  0  0  0
   -4.1172    4.1438   10.1621 C   0  0  0  0  0  0  0  0  0  0  0  0
   -2.7679    4.2330   10.5734 C   0  0  0  0  0  0  0  0  0  0  0  0
   -1.7186    4.0731   12.9052 C   0  0  0  0  0  0  0  0  0  0  0  0
   -2.0109    3.8781   14.2825 C   0  0  0  0  0  0  0  0  0  0  0  0
   -3.3583    3.7076   14.7039 C   0  0  0  0  0  0  0  0  0  0  0  0
   -4.4105    3.7300   13.7490 C   0  0  0  0  0  0  0  0  0  0  0  0
   -4.1120    3.9125   12.3624 C   0  0  0  0  0  0  0  0  0  0  0  0
   -2.7796    4.0819   11.9436 C   0  0  0  0  0  0  0  0  0  0  0  0
   -5.9485    3.8618   11.2706 H   0  0  0  0  0  0  0  0  0  0  0  0
    3.7670    1.1896   19.8919 H   0  0  0  0  0  0  0  0  0  0  0  0
    3.9554    2.6665   20.6726 H   0  0  0  0  0  0  0  0  0  0  0  0
    1.0581    0.7163   17.7865 H   0  0  0  0  0  0  0  0  0  0  0  0
    3.5979   -6.3087   18.7210 H   0  0  0  0  0  0  0  0  0  0  0  0
  1  6  1  0
  1 32  1  0
  1 33  1  0
  2  4  1  0
  2  6  1  0
  3  7  1  0
  3 20  1  0
  4  5  1  0
  5 21  1  0
  7  8  1  0
  7 34  1  0
  8  9  1  0
  9 10  1  0
 10 11  1  0
 10 12  1  0
 11 13  1  0
 12 14  1  0
 13 15  1  0
 14 15  1  0
 15 35  1  0
 16 18  2  0
 16 22  1  0
 17 23  1  0
 17 29  1  0
 17 31  1  0
 18 19  1  0
 18 26  1  0
 19 20  2  0
 20 21  1  0
 21 22  2  0
 23 24  2  0
 24 30  1  0
 25 26  2  0
 25 30  1  0
 26 27  1  0
 27 28  2  0
 28 29  1  0
 29 30  2  0
M  END
>  <CHROM.0>  (49) 
61.08914610,158.62678525,45.64452180

>  <CHROM.1>  (49) 
171.86117433,61.79088771,-79.08317649,167.94952819,-122.35320897,-172.51804066
79.75296191,-172.86064881,173.86219349,-74.11464108,111.87468887,0.77231007
1.60725755,16.28087176,-0.62841424,-0.73926918,-0.02066052

>  <Name>  (49) 
1uts_h

>  <RI>  (49) 
3.0543e+07

>  <Rbt.Current_Directory>  (49) 
/home/jta30/NA_complexes/1uts

>  <Rbt.Executable>  (49) 
rbdock ($Id: //depot/dev/client3/rdock/2013.1/src/exe/rbdock.cxx#4 $)

>  <Rbt.Library>  (49) 
libRbt.so (2013.1, Build901 2013/11/27)

>  <Rbt.Parameter_File>  (49) 
/software/dev_tools/swtree/cs400_centos7.2_pe2016-08/rdock/2013.1/centos7.2_conda/build/data/scripts/dock.prm

>  <Rbt.Receptor>  (49) 
1uts.prm

>  <SCORE>  (49) 
-8.73704

>  <SCORE.INTER>  (49) 
-7.68361

>  <SCORE.INTER.CONST>  (49) 
1

>  <SCORE.INTER.POLAR>  (49) 
-0.308477

>  <SCORE.INTER.REPUL>  (49) 
0.0310474

>  <SCORE.INTER.ROT>  (49) 
11

>  <SCORE.INTER.VDW>  (49) 
-23.19

>  <SCORE.INTER.norm>  (49) 
-0.25612

>  <SCORE.INTRA>  (49) 
-4.31211

>  <SCORE.INTRA.DIHEDRAL>  (49) 
-6.18562

>  <SCORE.INTRA.DIHEDRAL.0>  (49) 
14.7121

>  <SCORE.INTRA.POLAR>  (49) 
0

>  <SCORE.INTRA.POLAR.0>  (49) 
0

>  <SCORE.INTRA.REPUL>  (49) 
0.138902

>  <SCORE.INTRA.REPUL.0>  (49) 
0

>  <SCORE.INTRA.VDW>  (49) 
-1.91381

>  <SCORE.INTRA.VDW.0>  (49) 
-0.649219

>  <SCORE.INTRA.norm>  (49) 
-0.143737

>  <SCORE.RESTR>  (49) 
0

>  <SCORE.RESTR.CAVITY>  (49) 
0

>  <SCORE.RESTR.norm>  (49) 
0

>  <SCORE.SYSTEM>  (49) 
3.25868

>  <SCORE.SYSTEM.CONST>  (49) 
0

>  <SCORE.SYSTEM.DIHEDRAL>  (49) 
3.17913

>  <SCORE.SYSTEM.REPUL>  (49) 
0.393356

>  <SCORE.SYSTEM.VDW>  (49) 
-0.297665

>  <SCORE.SYSTEM.norm>  (49) 
0.108623

>  <SCORE.heavy>  (49) 
30

>  <SCORE.norm>  (49) 
-0.291235

>  <pdb_header>  (49) 
CRYST1    1.000    1.000    1.000  90.00  90.00  90.00 P 1           1

>  <Predicted_Rank>  (49) 
50.0

$$$$
1uts_h
     RDKit          3D

 35 38  0  0  0  0  0  0  0  0999 V2000
    2.4025    4.7153   21.3006 N   0  0  0  0  0  0  0  0  0  0  0  0
    2.7960    6.8225   20.0996 C   0  0  0  0  0  0  0  0  0  0  0  0
    2.4524    3.9226   16.2642 C   0  0  0  0  0  0  0  0  0  0  0  0
    1.7347    6.5956   19.0191 C   0  0  0  0  0  0  0  0  0  0  0  0
    1.5903    5.1876   18.7817 O   0  0  0  0  0  0  0  0  0  0  0  0
    2.3322    6.1897   21.4129 C   0  0  0  0  0  0  0  0  0  0  0  0
    2.5041    2.5460   15.7215 N   0  0  0  0  0  0  0  0  0  0  0  0
    2.0206    1.5846   16.7477 C   0  0  0  0  0  0  0  0  0  0  0  0
    3.1645    1.2255   17.7005 C   0  0  0  0  0  0  0  0  0  0  0  0
    4.3192    0.7288   16.9189 N   0  0  0  0  0  0  0  0  0  0  0  0
    4.6273   -0.6709   17.3310 C   0  0  0  0  0  0  0  0  0  0  0  0
    5.4951    1.6123   17.1587 C   0  0  0  0  0  0  0  0  0  0  0  0
    5.8287   -1.1889   16.5238 C   0  0  0  0  0  0  0  0  0  0  0  0
    6.6998    1.0924   16.3538 C   0  0  0  0  0  0  0  0  0  0  0  0
    7.0054   -0.3063   16.7643 N   0  0  0  0  0  0  0  0  0  0  0  0
   -1.7103    5.1091   16.9565 C   0  0  0  0  0  0  0  0  0  0  0  0
   -5.3841    3.7568   11.8999 N   0  0  0  0  0  0  0  0  0  0  0  0
   -1.3334    4.5204   15.7257 C   0  0  0  0  0  0  0  0  0  0  0  0
    0.0172    4.1387   15.5078 C   0  0  0  0  0  0  0  0  0  0  0  0
    0.9915    4.3431   16.5231 C   0  0  0  0  0  0  0  0  0  0  0  0
    0.6126    4.9519   17.7572 C   0  0  0  0  0  0  0  0  0  0  0  0
   -0.7415    5.3291   17.9709 C   0  0  0  0  0  0  0  0  0  0  0  0
   -6.4557    3.6019   12.8084 C   0  0  0  0  0  0  0  0  0  0  0  0
   -6.0017    3.6853   14.1442 C   0  0  0  0  0  0  0  0  0  0  0  0
   -3.6541    4.0872   15.0883 C   0  0  0  0  0  0  0  0  0  0  0  0
   -2.2993    4.3233   14.7288 C   0  0  0  0  0  0  0  0  0  0  0  0
   -1.9270    4.3661   13.3570 C   0  0  0  0  0  0  0  0  0  0  0  0
   -2.9087    4.1753   12.3474 C   0  0  0  0  0  0  0  0  0  0  0  0
   -4.2733    3.9518   12.7119 C   0  0  0  0  0  0  0  0  0  0  0  0
   -4.6434    3.9086   14.0686 C   0  0  0  0  0  0  0  0  0  0  0  0
   -5.4181    3.7393   10.9199 H   0  0  0  0  0  0  0  0  0  0  0  0
    1.9810    4.4182   20.4091 H   0  0  0  0  0  0  0  0  0  0  0  0
    3.3874    4.4155   21.3303 H   0  0  0  0  0  0  0  0  0  0  0  0
    3.4744    2.3163   15.4618 H   0  0  0  0  0  0  0  0  0  0  0  0
    7.8067   -0.6538   16.2182 H   0  0  0  0  0  0  0  0  0  0  0  0
  1  6  1  0
  1 32  1  0
  1 33  1  0
  2  4  1  0
  2  6  1  0
  3  7  1  0
  3 20  1  0
  4  5  1  0
  5 21  1  0
  7  8  1  0
  7 34  1  0
  8  9  1  0
  9 10  1  0
 10 11  1  0
 10 12  1  0
 11 13  1  0
 12 14  1  0
 13 15  1  0
 14 15  1  0
 15 35  1  0
 16 18  2  0
 16 22  1  0
 17 23  1  0
 17 29  1  0
 17 31  1  0
 18 19  1  0
 18 26  1  0
 19 20  2  0
 20 21  1  0
 21 22  2  0
 23 24  2  0
 24 30  1  0
 25 26  2  0
 25 30  1  0
 26 27  1  0
 27 28  2  0
 28 29  1  0
 29 30  2  0
M  END
>  <CHROM.0>  (50) 
-176.96018609,-85.64370960,-55.14952144

>  <CHROM.1>  (50) 
-46.62256655,-62.88237339,71.68122760,-65.58378896,-48.44332322,-179.18189471
116.33617122,-83.66328464,-54.63514694,-119.36539718,-30.14510551,0.74472868
3.41802700,16.43711134,0.13118808,-0.46958815,0.80960521

>  <Name>  (50) 
1uts_h

>  <RI>  (50) 
3.0543e+07

>  <Rbt.Current_Directory>  (50) 
/home/jta30/NA_complexes/1uts

>  <Rbt.Executable>  (50) 
rbdock ($Id: //depot/dev/client3/rdock/2013.1/src/exe/rbdock.cxx#4 $)

>  <Rbt.Library>  (50) 
libRbt.so (2013.1, Build901 2013/11/27)

>  <Rbt.Parameter_File>  (50) 
/software/dev_tools/swtree/cs400_centos7.2_pe2016-08/rdock/2013.1/centos7.2_conda/build/data/scripts/dock.prm

>  <Rbt.Receptor>  (50) 
1uts.prm

>  <SCORE>  (50) 
-11.0188

>  <SCORE.INTER>  (50) 
-10.6152

>  <SCORE.INTER.CONST>  (50) 
1

>  <SCORE.INTER.POLAR>  (50) 
0

>  <SCORE.INTER.REPUL>  (50) 
0

>  <SCORE.INTER.ROT>  (50) 
11

>  <SCORE.INTER.VDW>  (50) 
-27.0152

>  <SCORE.INTER.norm>  (50) 
-0.353841

>  <SCORE.INTRA>  (50) 
-5.12791

>  <SCORE.INTRA.DIHEDRAL>  (50) 
-4.47773

>  <SCORE.INTRA.DIHEDRAL.0>  (50) 
14.7121

>  <SCORE.INTRA.POLAR>  (50) 
-0.870831

>  <SCORE.INTRA.POLAR.0>  (50) 
0

>  <SCORE.INTRA.REPUL>  (50) 
0

>  <SCORE.INTRA.REPUL.0>  (50) 
0

>  <SCORE.INTRA.VDW>  (50) 
0.0717783

>  <SCORE.INTRA.VDW.0>  (50) 
-0.649219

>  <SCORE.INTRA.norm>  (50) 
-0.17093

>  <SCORE.RESTR>  (50) 
0

>  <SCORE.RESTR.CAVITY>  (50) 
0

>  <SCORE.RESTR.norm>  (50) 
0

>  <SCORE.SYSTEM>  (50) 
4.72432

>  <SCORE.SYSTEM.CONST>  (50) 
0

>  <SCORE.SYSTEM.DIHEDRAL>  (50) 
3.13182

>  <SCORE.SYSTEM.POLAR>  (50) 
-0.988238

>  <SCORE.SYSTEM.REPUL>  (50) 
0.910847

>  <SCORE.SYSTEM.VDW>  (50) 
1.96419

>  <SCORE.SYSTEM.norm>  (50) 
0.157477

>  <SCORE.heavy>  (50) 
30

>  <SCORE.norm>  (50) 
-0.367294

>  <pdb_header>  (50) 
CRYST1    1.000    1.000    1.000  90.00  90.00  90.00 P 1           1

>  <Predicted_Rank>  (50) 
51.0

$$$$
1uts_h
     RDKit          3D

 35 38  0  0  0  0  0  0  0  0999 V2000
    4.5201    0.3171   17.3196 N   0  0  0  0  0  0  0  0  0  0  0  0
    3.4659    2.4022   16.5594 C   0  0  0  0  0  0  0  0  0  0  0  0
   -0.3333    0.3859   15.3102 C   0  0  0  0  0  0  0  0  0  0  0  0
    2.2854    2.9818   15.7746 C   0  0  0  0  0  0  0  0  0  0  0  0
    1.0646    2.7029   16.4758 O   0  0  0  0  0  0  0  0  0  0  0  0
    3.3567    0.8768   16.5952 C   0  0  0  0  0  0  0  0  0  0  0  0
    0.0322    0.2162   16.7348 N   0  0  0  0  0  0  0  0  0  0  0  0
    0.2692   -1.2232   17.0230 C   0  0  0  0  0  0  0  0  0  0  0  0
    0.9337   -1.3741   18.3946 C   0  0  0  0  0  0  0  0  0  0  0  0
    1.2824   -2.7950   18.6193 N   0  0  0  0  0  0  0  0  0  0  0  0
    1.3146   -3.0681   20.0850 C   0  0  0  0  0  0  0  0  0  0  0  0
    2.6110   -3.0805   18.0077 C   0  0  0  0  0  0  0  0  0  0  0  0
    1.6802   -4.5423   20.3225 C   0  0  0  0  0  0  0  0  0  0  0  0
    2.9799   -4.5555   18.2482 C   0  0  0  0  0  0  0  0  0  0  0  0
    3.0095   -4.8281   19.7121 N   0  0  0  0  0  0  0  0  0  0  0  0
   -1.5980    4.5044   14.5018 C   0  0  0  0  0  0  0  0  0  0  0  0
   -6.4802    4.4292   10.3003 N   0  0  0  0  0  0  0  0  0  0  0  0
   -2.2856    3.4193   13.9077 C   0  0  0  0  0  0  0  0  0  0  0  0
   -1.8703    2.0872   14.1735 C   0  0  0  0  0  0  0  0  0  0  0  0
   -0.7679    1.8401   15.0370 C   0  0  0  0  0  0  0  0  0  0  0  0
   -0.0658    2.9363   15.6221 C   0  0  0  0  0  0  0  0  0  0  0  0
   -0.4879    4.2675   15.3548 C   0  0  0  0  0  0  0  0  0  0  0  0
   -5.6764    4.7442    9.1812 C   0  0  0  0  0  0  0  0  0  0  0  0
   -4.3035    4.6778    9.5104 C   0  0  0  0  0  0  0  0  0  0  0  0
   -3.1414    4.0702   11.7114 C   0  0  0  0  0  0  0  0  0  0  0  0
   -3.3706    3.6709   13.0562 C   0  0  0  0  0  0  0  0  0  0  0  0
   -4.7015    3.5205   13.5339 C   0  0  0  0  0  0  0  0  0  0  0  0
   -5.8005    3.7668   12.6672 C   0  0  0  0  0  0  0  0  0  0  0  0
   -5.5665    4.1549   11.3108 C   0  0  0  0  0  0  0  0  0  0  0  0
   -4.2504    4.3048   10.8366 C   0  0  0  0  0  0  0  0  0  0  0  0
   -7.4594    4.4021   10.3500 H   0  0  0  0  0  0  0  0  0  0  0  0
    5.3905    0.6596   16.8885 H   0  0  0  0  0  0  0  0  0  0  0  0
    4.4862    0.6144   18.3051 H   0  0  0  0  0  0  0  0  0  0  0  0
   -0.7332    0.5667   17.3291 H   0  0  0  0  0  0  0  0  0  0  0  0
    3.2487   -5.8177   19.8692 H   0  0  0  0  0  0  0  0  0  0  0  0
  1  6  1  0
  1 32  1  0
  1 33  1  0
  2  4  1  0
  2  6  1  0
  3  7  1  0
  3 20  1  0
  4  5  1  0
  5 21  1  0
  7  8  1  0
  7 34  1  0
  8  9  1  0
  9 10  1  0
 10 11  1  0
 10 12  1  0
 11 13  1  0
 12 14  1  0
 13 15  1  0
 14 15  1  0
 15 35  1  0
 16 18  2  0
 16 22  1  0
 17 23  1  0
 17 29  1  0
 17 31  1  0
 18 19  1  0
 18 26  1  0
 19 20  2  0
 20 21  1  0
 21 22  2  0
 23 24  2  0
 24 30  1  0
 25 26  2  0
 25 30  1  0
 26 27  1  0
 27 28  2  0
 28 29  1  0
 29 30  2  0
M  END
>  <CHROM.0>  (51) 
-35.52095176,-88.31350959,-54.48676563

>  <CHROM.1>  (51) 
-54.78628942,64.91802105,178.32603800,172.34340264,-139.89503214,-165.89352510
103.69632720,167.85033005,-174.70282768,-153.66668146,79.03112612,-0.52968315
1.18522375,15.38248414,-0.88557934,-0.42725912,-0.48425289

>  <Name>  (51) 
1uts_h

>  <RI>  (51) 
3.0543e+07

>  <Rbt.Current_Directory>  (51) 
/home/jta30/NA_complexes/1uts

>  <Rbt.Executable>  (51) 
rbdock ($Id: //depot/dev/client3/rdock/2013.1/src/exe/rbdock.cxx#4 $)

>  <Rbt.Library>  (51) 
libRbt.so (2013.1, Build901 2013/11/27)

>  <Rbt.Parameter_File>  (51) 
/software/dev_tools/swtree/cs400_centos7.2_pe2016-08/rdock/2013.1/centos7.2_conda/build/data/scripts/dock.prm

>  <Rbt.Receptor>  (51) 
1uts.prm

>  <SCORE>  (51) 
-8.96024

>  <SCORE.INTER>  (51) 
-9.11391

>  <SCORE.INTER.CONST>  (51) 
1

>  <SCORE.INTER.POLAR>  (51) 
-0.0112235

>  <SCORE.INTER.REPUL>  (51) 
0.00609879

>  <SCORE.INTER.ROT>  (51) 
11

>  <SCORE.INTER.VDW>  (51) 
-25.5062

>  <SCORE.INTER.norm>  (51) 
-0.303797

>  <SCORE.INTRA>  (51) 
-5.39061

>  <SCORE.INTRA.DIHEDRAL>  (51) 
-6.21477

>  <SCORE.INTRA.DIHEDRAL.0>  (51) 
14.7121

>  <SCORE.INTRA.POLAR>  (51) 
0

>  <SCORE.INTRA.POLAR.0>  (51) 
0

>  <SCORE.INTRA.REPUL>  (51) 
0

>  <SCORE.INTRA.REPUL.0>  (51) 
0

>  <SCORE.INTRA.VDW>  (51) 
-2.28322

>  <SCORE.INTRA.VDW.0>  (51) 
-0.649219

>  <SCORE.INTRA.norm>  (51) 
-0.179687

>  <SCORE.RESTR>  (51) 
0

>  <SCORE.RESTR.CAVITY>  (51) 
0

>  <SCORE.RESTR.norm>  (51) 
0

>  <SCORE.SYSTEM>  (51) 
5.54428

>  <SCORE.SYSTEM.CONST>  (51) 
0

>  <SCORE.SYSTEM.DIHEDRAL>  (51) 
6.13455

>  <SCORE.SYSTEM.POLAR>  (51) 
-1.06506

>  <SCORE.SYSTEM.REPUL>  (51) 
0.881129

>  <SCORE.SYSTEM.VDW>  (51) 
1.69256

>  <SCORE.SYSTEM.norm>  (51) 
0.184809

>  <SCORE.heavy>  (51) 
30

>  <SCORE.norm>  (51) 
-0.298675

>  <pdb_header>  (51) 
CRYST1    1.000    1.000    1.000  90.00  90.00  90.00 P 1           1

>  <Predicted_Rank>  (51) 
52.0

$$$$
1uts_h
     RDKit          3D

 35 38  0  0  0  0  0  0  0  0999 V2000
    4.4525    2.1900   16.8463 N   0  0  0  0  0  0  0  0  0  0  0  0
    2.4452    3.1630   15.8161 C   0  0  0  0  0  0  0  0  0  0  0  0
   -1.0290    4.6350   17.5069 C   0  0  0  0  0  0  0  0  0  0  0  0
    0.9243    3.0254   15.7010 C   0  0  0  0  0  0  0  0  0  0  0  0
    0.3983    4.1467   14.9759 O   0  0  0  0  0  0  0  0  0  0  0  0
    3.0081    1.9770   16.6015 C   0  0  0  0  0  0  0  0  0  0  0  0
    0.2247    5.3784   17.2466 N   0  0  0  0  0  0  0  0  0  0  0  0
    0.7960    5.8622   18.5314 C   0  0  0  0  0  0  0  0  0  0  0  0
    2.1268    5.1555   18.8051 C   0  0  0  0  0  0  0  0  0  0  0  0
    2.7719    5.7620   19.9912 N   0  0  0  0  0  0  0  0  0  0  0  0
    3.4184    7.0467   19.5970 C   0  0  0  0  0  0  0  0  0  0  0  0
    3.7850    4.8169   20.5402 C   0  0  0  0  0  0  0  0  0  0  0  0
    4.0929    7.6779   20.8258 C   0  0  0  0  0  0  0  0  0  0  0  0
    4.4637    5.4494   21.7686 C   0  0  0  0  0  0  0  0  0  0  0  0
    5.1071    6.7336   21.3746 N   0  0  0  0  0  0  0  0  0  0  0  0
   -3.1586    3.8000   13.7676 C   0  0  0  0  0  0  0  0  0  0  0  0
   -9.4854    3.6371   14.6830 N   0  0  0  0  0  0  0  0  0  0  0  0
   -3.8812    4.0114   14.9661 C   0  0  0  0  0  0  0  0  0  0  0  0
   -3.1849    4.2811   16.1744 C   0  0  0  0  0  0  0  0  0  0  0  0
   -1.7643    4.3425   16.1833 C   0  0  0  0  0  0  0  0  0  0  0  0
   -1.0370    4.1128   14.9769 C   0  0  0  0  0  0  0  0  0  0  0  0
   -1.7395    3.8464   13.7698 C   0  0  0  0  0  0  0  0  0  0  0  0
   -9.5650    3.2209   13.3346 C   0  0  0  0  0  0  0  0  0  0  0  0
   -8.2786    3.1351   12.7556 C   0  0  0  0  0  0  0  0  0  0  0  0
   -5.9624    3.5709   13.7602 C   0  0  0  0  0  0  0  0  0  0  0  0
   -5.2817    3.9479   14.9497 C   0  0  0  0  0  0  0  0  0  0  0  0
   -6.0230    4.2535   16.1242 C   0  0  0  0  0  0  0  0  0  0  0  0
   -7.4421    4.1798   16.1089 C   0  0  0  0  0  0  0  0  0  0  0  0
   -8.1234    3.7867   14.9145 C   0  0  0  0  0  0  0  0  0  0  0  0
   -7.3917    3.4846   13.7515 C   0  0  0  0  0  0  0  0  0  0  0  0
  -10.2229    3.7796   15.3138 H   0  0  0  0  0  0  0  0  0  0  0  0
    4.9404    2.3038   15.9465 H   0  0  0  0  0  0  0  0  0  0  0  0
    4.5826    3.0383   17.4158 H   0  0  0  0  0  0  0  0  0  0  0  0
    0.0258    6.1812   16.6321 H   0  0  0  0  0  0  0  0  0  0  0  0
    5.5533    7.1580   22.2004 H   0  0  0  0  0  0  0  0  0  0  0  0
  1  6  1  0
  1 32  1  0
  1 33  1  0
  2  4  1  0
  2  6  1  0
  3  7  1  0
  3 20  1  0
  4  5  1  0
  5 21  1  0
  7  8  1  0
  7 34  1  0
  8  9  1  0
  9 10  1  0
 10 11  1  0
 10 12  1  0
 11 13  1  0
 12 14  1  0
 13 15  1  0
 14 15  1  0
 15 35  1  0
 16 18  2  0
 16 22  1  0
 17 23  1  0
 17 29  1  0
 17 31  1  0
 18 19  1  0
 18 26  1  0
 19 20  2  0
 20 21  1  0
 21 22  2  0
 23 24  2  0
 24 30  1  0
 25 26  2  0
 25 30  1  0
 26 27  1  0
 27 28  2  0
 28 29  1  0
 29 30  2  0
M  END
>  <CHROM.0>  (52) 
178.91781969,66.66906659,-50.60058933

>  <CHROM.1>  (52) 
-58.03106441,179.39634107,-173.52138645,169.99088872,-148.38584871,-173.93235401
68.94317565,113.88582496,172.87942432,-78.46978395,4.88765977,-1.21003540
4.39022854,16.68056671,-0.44593447,0.14565633,-2.18186453

>  <Name>  (52) 
1uts_h

>  <RI>  (52) 
3.0543e+07

>  <Rbt.Current_Directory>  (52) 
/home/jta30/NA_complexes/1uts

>  <Rbt.Executable>  (52) 
rbdock ($Id: //depot/dev/client3/rdock/2013.1/src/exe/rbdock.cxx#4 $)

>  <Rbt.Library>  (52) 
libRbt.so (2013.1, Build901 2013/11/27)

>  <Rbt.Parameter_File>  (52) 
/software/dev_tools/swtree/cs400_centos7.2_pe2016-08/rdock/2013.1/centos7.2_conda/build/data/scripts/dock.prm

>  <Rbt.Receptor>  (52) 
1uts.prm

>  <SCORE>  (52) 
-20.909

>  <SCORE.INTER>  (52) 
-19.34

>  <SCORE.INTER.CONST>  (52) 
1

>  <SCORE.INTER.POLAR>  (52) 
-1.92512

>  <SCORE.INTER.REPUL>  (52) 
0.167881

>  <SCORE.INTER.ROT>  (52) 
11

>  <SCORE.INTER.VDW>  (52) 
-30.034

>  <SCORE.INTER.norm>  (52) 
-0.644666

>  <SCORE.INTRA>  (52) 
-2.73194

>  <SCORE.INTRA.DIHEDRAL>  (52) 
-5.093

>  <SCORE.INTRA.DIHEDRAL.0>  (52) 
14.7121

>  <SCORE.INTRA.POLAR>  (52) 
0

>  <SCORE.INTRA.POLAR.0>  (52) 
0

>  <SCORE.INTRA.REPUL>  (52) 
0

>  <SCORE.INTRA.REPUL.0>  (52) 
0

>  <SCORE.INTRA.VDW>  (52) 
-0.185442

>  <SCORE.INTRA.VDW.0>  (52) 
-0.649219

>  <SCORE.INTRA.norm>  (52) 
-0.0910647

>  <SCORE.RESTR>  (52) 
0

>  <SCORE.RESTR.CAVITY>  (52) 
0

>  <SCORE.RESTR.norm>  (52) 
0

>  <SCORE.SYSTEM>  (52) 
1.16293

>  <SCORE.SYSTEM.CONST>  (52) 
0

>  <SCORE.SYSTEM.DIHEDRAL>  (52) 
0.877492

>  <SCORE.SYSTEM.POLAR>  (52) 
-0.205827

>  <SCORE.SYSTEM.REPUL>  (52) 
0.453636

>  <SCORE.SYSTEM.VDW>  (52) 
-0.844187

>  <SCORE.SYSTEM.norm>  (52) 
0.0387643

>  <SCORE.heavy>  (52) 
30

>  <SCORE.norm>  (52) 
-0.696966

>  <pdb_header>  (52) 
CRYST1    1.000    1.000    1.000  90.00  90.00  90.00 P 1           1

>  <Predicted_Rank>  (52) 
53.0

$$$$
1uts_h
     RDKit          3D

 35 38  0  0  0  0  0  0  0  0999 V2000
   -0.6713    1.7172   19.4516 N   0  0  0  0  0  0  0  0  0  0  0  0
   -1.9142    3.7958   19.8661 C   0  0  0  0  0  0  0  0  0  0  0  0
   -1.3330    4.5966   15.5878 C   0  0  0  0  0  0  0  0  0  0  0  0
   -1.1745    4.6059   18.7976 C   0  0  0  0  0  0  0  0  0  0  0  0
   -2.0562    5.6031   18.2609 O   0  0  0  0  0  0  0  0  0  0  0  0
   -0.9672    2.7545   20.4654 C   0  0  0  0  0  0  0  0  0  0  0  0
   -1.3733    4.7891   14.1204 N   0  0  0  0  0  0  0  0  0  0  0  0
   -1.6690    3.4936   13.4532 C   0  0  0  0  0  0  0  0  0  0  0  0
   -1.5500    3.6540   11.9348 C   0  0  0  0  0  0  0  0  0  0  0  0
   -2.5492    4.6393   11.4637 N   0  0  0  0  0  0  0  0  0  0  0  0
   -2.9331    4.3180   10.0590 C   0  0  0  0  0  0  0  0  0  0  0  0
   -1.9680    6.0093   11.5437 C   0  0  0  0  0  0  0  0  0  0  0  0
   -3.9681    5.3417    9.5650 C   0  0  0  0  0  0  0  0  0  0  0  0
   -3.0022    7.0349   11.0457 C   0  0  0  0  0  0  0  0  0  0  0  0
   -3.3869    6.7119    9.6435 N   0  0  0  0  0  0  0  0  0  0  0  0
   -5.4131    4.2806   17.1588 C   0  0  0  0  0  0  0  0  0  0  0  0
   -9.0834    1.2787   12.7823 N   0  0  0  0  0  0  0  0  0  0  0  0
   -5.1107    3.8007   15.8620 C   0  0  0  0  0  0  0  0  0  0  0  0
   -3.7866    3.9067   15.3589 C   0  0  0  0  0  0  0  0  0  0  0  0
   -2.7631    4.4904   16.1549 C   0  0  0  0  0  0  0  0  0  0  0  0
   -3.0737    4.9885   17.4559 C   0  0  0  0  0  0  0  0  0  0  0  0
   -4.4002    4.8769   17.9554 C   0  0  0  0  0  0  0  0  0  0  0  0
   -8.4787    0.0024   12.7281 C   0  0  0  0  0  0  0  0  0  0  0  0
   -7.2410    0.0003   13.4106 C   0  0  0  0  0  0  0  0  0  0  0  0
   -6.0322    1.8669   14.6829 C   0  0  0  0  0  0  0  0  0  0  0  0
   -6.1254    3.2278   15.0826 C   0  0  0  0  0  0  0  0  0  0  0  0
   -7.2524    4.0044   14.6964 C   0  0  0  0  0  0  0  0  0  0  0  0
   -8.2847    3.4198   13.9141 C   0  0  0  0  0  0  0  0  0  0  0  0
   -8.1947    2.0465   13.5253 C   0  0  0  0  0  0  0  0  0  0  0  0
   -7.0802    1.2768   13.9058 C   0  0  0  0  0  0  0  0  0  0  0  0
   -9.9391    1.5567   12.3919 H   0  0  0  0  0  0  0  0  0  0  0  0
    0.0005    2.0892   18.7653 H   0  0  0  0  0  0  0  0  0  0  0  0
   -0.2660    0.8910   19.9142 H   0  0  0  0  0  0  0  0  0  0  0  0
   -0.4623    5.1453   13.7964 H   0  0  0  0  0  0  0  0  0  0  0  0
   -4.0848    7.3952    9.3162 H   0  0  0  0  0  0  0  0  0  0  0  0
  1  6  1  0
  1 32  1  0
  1 33  1  0
  2  4  1  0
  2  6  1  0
  3  7  1  0
  3 20  1  0
  4  5  1  0
  5 21  1  0
  7  8  1  0
  7 34  1  0
  8  9  1  0
  9 10  1  0
 10 11  1  0
 10 12  1  0
 11 13  1  0
 12 14  1  0
 13 15  1  0
 14 15  1  0
 15 35  1  0
 16 18  2  0
 16 22  1  0
 17 23  1  0
 17 29  1  0
 17 31  1  0
 18 19  1  0
 18 26  1  0
 19 20  2  0
 20 21  1  0
 21 22  2  0
 23 24  2  0
 24 30  1  0
 25 26  2  0
 25 30  1  0
 26 27  1  0
 27 28  2  0
 28 29  1  0
 29 30  2  0
M  END
>  <CHROM.0>  (53) 
34.45128701,65.37772473,-54.96241382

>  <CHROM.1>  (53) 
76.07231944,-178.59857930,-69.25477897,-77.11658318,32.18345127,-70.66380507
-74.85268003,-173.42891486,-62.09025109,-151.39270061,-117.64480871,-3.93945230
3.80808088,14.65138703,0.97030234,0.50509489,1.83686367

>  <Name>  (53) 
1uts_h

>  <RI>  (53) 
3.0543e+07

>  <Rbt.Current_Directory>  (53) 
/home/jta30/NA_complexes/1uts

>  <Rbt.Executable>  (53) 
rbdock ($Id: //depot/dev/client3/rdock/2013.1/src/exe/rbdock.cxx#4 $)

>  <Rbt.Library>  (53) 
libRbt.so (2013.1, Build901 2013/11/27)

>  <Rbt.Parameter_File>  (53) 
/software/dev_tools/swtree/cs400_centos7.2_pe2016-08/rdock/2013.1/centos7.2_conda/build/data/scripts/dock.prm

>  <Rbt.Receptor>  (53) 
1uts.prm

>  <SCORE>  (53) 
-16.7585

>  <SCORE.INTER>  (53) 
-16.7453

>  <SCORE.INTER.CONST>  (53) 
1

>  <SCORE.INTER.POLAR>  (53) 
-1.88662

>  <SCORE.INTER.REPUL>  (53) 
0.234316

>  <SCORE.INTER.ROT>  (53) 
11

>  <SCORE.INTER.VDW>  (53) 
-27.9024

>  <SCORE.INTER.norm>  (53) 
-0.558177

>  <SCORE.INTRA>  (53) 
-2.71188

>  <SCORE.INTRA.DIHEDRAL>  (53) 
-5.6844

>  <SCORE.INTRA.DIHEDRAL.0>  (53) 
14.7121

>  <SCORE.INTRA.POLAR>  (53) 
0

>  <SCORE.INTRA.POLAR.0>  (53) 
0

>  <SCORE.INTRA.REPUL>  (53) 
0

>  <SCORE.INTRA.REPUL.0>  (53) 
0

>  <SCORE.INTRA.VDW>  (53) 
0.130321

>  <SCORE.INTRA.VDW.0>  (53) 
-0.649219

>  <SCORE.INTRA.norm>  (53) 
-0.090396

>  <SCORE.RESTR>  (53) 
0.138578

>  <SCORE.RESTR.CAVITY>  (53) 
0.138578

>  <SCORE.RESTR.norm>  (53) 
0.00461926

>  <SCORE.SYSTEM>  (53) 
2.56012

>  <SCORE.SYSTEM.CONST>  (53) 
0

>  <SCORE.SYSTEM.DIHEDRAL>  (53) 
3.2239

>  <SCORE.SYSTEM.POLAR>  (53) 
-0.218041

>  <SCORE.SYSTEM.REPUL>  (53) 
0.452079

>  <SCORE.SYSTEM.VDW>  (53) 
-0.57089

>  <SCORE.SYSTEM.norm>  (53) 
0.0853372

>  <SCORE.heavy>  (53) 
30

>  <SCORE.norm>  (53) 
-0.558616

>  <pdb_header>  (53) 
CRYST1    1.000    1.000    1.000  90.00  90.00  90.00 P 1           1

>  <Predicted_Rank>  (53) 
54.0

$$$$
1uts_h
     RDKit          3D

 35 38  0  0  0  0  0  0  0  0999 V2000
    1.1525   -1.8511   15.8938 N   0  0  0  0  0  0  0  0  0  0  0  0
    2.9574   -0.8864   17.2537 C   0  0  0  0  0  0  0  0  0  0  0  0
    2.3412    3.7395   15.6956 C   0  0  0  0  0  0  0  0  0  0  0  0
    2.8632    0.4888   16.5865 C   0  0  0  0  0  0  0  0  0  0  0  0
    1.9644    1.3205   17.3349 O   0  0  0  0  0  0  0  0  0  0  0  0
    1.5740   -1.5390   17.2782 C   0  0  0  0  0  0  0  0  0  0  0  0
    2.1930    4.9646   16.5137 N   0  0  0  0  0  0  0  0  0  0  0  0
    2.1187    4.5996   17.9532 C   0  0  0  0  0  0  0  0  0  0  0  0
    2.4957    5.8087   18.8142 C   0  0  0  0  0  0  0  0  0  0  0  0
    2.4824    5.4199   20.2423 N   0  0  0  0  0  0  0  0  0  0  0  0
    2.4192    6.6477   21.0863 C   0  0  0  0  0  0  0  0  0  0  0  0
    3.7124    4.6379   20.5531 C   0  0  0  0  0  0  0  0  0  0  0  0
    2.4091    6.2479   22.5706 C   0  0  0  0  0  0  0  0  0  0  0  0
    3.7052    4.2402   22.0401 C   0  0  0  0  0  0  0  0  0  0  0  0
    3.6396    5.4668   22.8823 N   0  0  0  0  0  0  0  0  0  0  0  0
   -1.4147    1.4797   15.6652 C   0  0  0  0  0  0  0  0  0  0  0  0
   -5.4632    4.3315   11.5158 N   0  0  0  0  0  0  0  0  0  0  0  0
   -1.2803    2.6472   14.8764 C   0  0  0  0  0  0  0  0  0  0  0  0
   -0.0606    3.3750   14.8912 C   0  0  0  0  0  0  0  0  0  0  0  0
    1.0269    2.9329   15.6935 C   0  0  0  0  0  0  0  0  0  0  0  0
    0.8836    1.7646   16.5007 C   0  0  0  0  0  0  0  0  0  0  0  0
   -0.3385    1.0383   16.4794 C   0  0  0  0  0  0  0  0  0  0  0  0
   -4.7088    4.4093   10.3230 C   0  0  0  0  0  0  0  0  0  0  0  0
   -3.3567    4.0708   10.5575 C   0  0  0  0  0  0  0  0  0  0  0  0
   -2.1646    3.3478   12.7069 C   0  0  0  0  0  0  0  0  0  0  0  0
   -2.3574    3.0778   14.0890 C   0  0  0  0  0  0  0  0  0  0  0  0
   -3.6456    3.2384   14.6696 C   0  0  0  0  0  0  0  0  0  0  0  0
   -4.7386    3.6660   13.8684 C   0  0  0  0  0  0  0  0  0  0  0  0
   -4.5444    3.9235   12.4752 C   0  0  0  0  0  0  0  0  0  0  0  0
   -3.2706    3.7657   11.8991 C   0  0  0  0  0  0  0  0  0  0  0  0
   -6.4190    4.5153   11.6368 H   0  0  0  0  0  0  0  0  0  0  0  0
    1.0084   -0.9746   15.3727 H   0  0  0  0  0  0  0  0  0  0  0  0
    1.8837   -2.4088   15.4300 H   0  0  0  0  0  0  0  0  0  0  0  0
    1.3325    5.4593   16.2372 H   0  0  0  0  0  0  0  0  0  0  0  0
    3.6268    5.1968   23.8763 H   0  0  0  0  0  0  0  0  0  0  0  0
  1  6  1  0
  1 32  1  0
  1 33  1  0
  2  4  1  0
  2  6  1  0
  3  7  1  0
  3 20  1  0
  4  5  1  0
  5 21  1  0
  7  8  1  0
  7 34  1  0
  8  9  1  0
  9 10  1  0
 10 11  1  0
 10 12  1  0
 11 13  1  0
 12 14  1  0
 13 15  1  0
 14 15  1  0
 15 35  1  0
 16 18  2  0
 16 22  1  0
 17 23  1  0
 17 29  1  0
 17 31  1  0
 18 19  1  0
 18 26  1  0
 19 20  2  0
 20 21  1  0
 21 22  2  0
 23 24  2  0
 24 30  1  0
 25 26  2  0
 25 30  1  0
 26 27  1  0
 27 28  2  0
 28 29  1  0
 29 30  2  0
M  END
>  <CHROM.0>  (54) 
-179.73663924,-86.85399677,-56.04945616

>  <CHROM.1>  (54) 
-66.43146448,60.45417829,67.03852893,71.02341805,76.36334644,-121.47966525
-85.79004630,158.66321302,-177.31101720,-162.28205334,-128.09499908,0.25544098
3.20350734,16.47338344,-2.69889211,-0.80068766,0.45849740

>  <Name>  (54) 
1uts_h

>  <RI>  (54) 
3.0543e+07

>  <Rbt.Current_Directory>  (54) 
/home/jta30/NA_complexes/1uts

>  <Rbt.Executable>  (54) 
rbdock ($Id: //depot/dev/client3/rdock/2013.1/src/exe/rbdock.cxx#4 $)

>  <Rbt.Library>  (54) 
libRbt.so (2013.1, Build901 2013/11/27)

>  <Rbt.Parameter_File>  (54) 
/software/dev_tools/swtree/cs400_centos7.2_pe2016-08/rdock/2013.1/centos7.2_conda/build/data/scripts/dock.prm

>  <Rbt.Receptor>  (54) 
1uts.prm

>  <SCORE>  (54) 
-11.5524

>  <SCORE.INTER>  (54) 
-15.2054

>  <SCORE.INTER.CONST>  (54) 
1

>  <SCORE.INTER.POLAR>  (54) 
-2.54832

>  <SCORE.INTER.REPUL>  (54) 
0.0235321

>  <SCORE.INTER.ROT>  (54) 
11

>  <SCORE.INTER.VDW>  (54) 
-23.0587

>  <SCORE.INTER.norm>  (54) 
-0.506845

>  <SCORE.INTRA>  (54) 
-1.03603

>  <SCORE.INTRA.DIHEDRAL>  (54) 
0.127406

>  <SCORE.INTRA.DIHEDRAL.0>  (54) 
14.7121

>  <SCORE.INTRA.POLAR>  (54) 
0

>  <SCORE.INTRA.POLAR.0>  (54) 
0

>  <SCORE.INTRA.REPUL>  (54) 
0

>  <SCORE.INTRA.REPUL.0>  (54) 
0

>  <SCORE.INTRA.VDW>  (54) 
-1.09973

>  <SCORE.INTRA.VDW.0>  (54) 
-0.649219

>  <SCORE.INTRA.norm>  (54) 
-0.0345343

>  <SCORE.RESTR>  (54) 
0

>  <SCORE.RESTR.CAVITY>  (54) 
0

>  <SCORE.RESTR.norm>  (54) 
0

>  <SCORE.SYSTEM>  (54) 
4.68898

>  <SCORE.SYSTEM.CONST>  (54) 
0

>  <SCORE.SYSTEM.DIHEDRAL>  (54) 
3.26916

>  <SCORE.SYSTEM.POLAR>  (54) 
-0.98752

>  <SCORE.SYSTEM.REPUL>  (54) 
0.944094

>  <SCORE.SYSTEM.VDW>  (54) 
1.69149

>  <SCORE.SYSTEM.norm>  (54) 
0.156299

>  <SCORE.heavy>  (54) 
30

>  <SCORE.norm>  (54) 
-0.38508

>  <pdb_header>  (54) 
CRYST1    1.000    1.000    1.000  90.00  90.00  90.00 P 1           1

>  <Predicted_Rank>  (54) 
55.0

$$$$
1uts_h
     RDKit          3D

 35 38  0  0  0  0  0  0  0  0999 V2000
  -10.7385    3.0614   13.4380 N   0  0  0  0  0  0  0  0  0  0  0  0
   -8.4274    2.2724   13.7094 C   0  0  0  0  0  0  0  0  0  0  0  0
   -3.7108    3.6250   13.5375 C   0  0  0  0  0  0  0  0  0  0  0  0
   -7.1713    2.4312   14.5709 C   0  0  0  0  0  0  0  0  0  0  0  0
   -6.5584    3.6983   14.2902 O   0  0  0  0  0  0  0  0  0  0  0  0
   -9.4327    3.3698   14.0634 C   0  0  0  0  0  0  0  0  0  0  0  0
   -2.6331    4.5445   13.1069 N   0  0  0  0  0  0  0  0  0  0  0  0
   -1.3100    3.9011   13.3223 C   0  0  0  0  0  0  0  0  0  0  0  0
   -0.7706    4.2766   14.7056 C   0  0  0  0  0  0  0  0  0  0  0  0
    0.4514    3.4905   14.9879 N   0  0  0  0  0  0  0  0  0  0  0  0
    0.0919    2.3000   15.8109 C   0  0  0  0  0  0  0  0  0  0  0  0
    1.4331    4.3463   15.7123 C   0  0  0  0  0  0  0  0  0  0  0  0
    1.3594    1.4831   16.1093 C   0  0  0  0  0  0  0  0  0  0  0  0
    2.7014    3.5282   16.0150 C   0  0  0  0  0  0  0  0  0  0  0  0
    2.3412    2.3381   16.8350 N   0  0  0  0  0  0  0  0  0  0  0  0
   -5.0101    4.6353   17.6002 C   0  0  0  0  0  0  0  0  0  0  0  0
    0.3368    5.5967   21.1409 N   0  0  0  0  0  0  0  0  0  0  0  0
   -3.6312    4.5936   17.2839 C   0  0  0  0  0  0  0  0  0  0  0  0
   -3.2170    4.2651   15.9655 C   0  0  0  0  0  0  0  0  0  0  0  0
   -4.1831    3.9809   14.9616 C   0  0  0  0  0  0  0  0  0  0  0  0
   -5.5726    4.0076   15.2869 C   0  0  0  0  0  0  0  0  0  0  0  0
   -5.9814    4.3401   16.6075 C   0  0  0  0  0  0  0  0  0  0  0  0
    1.3112    4.7134   20.6232 C   0  0  0  0  0  0  0  0  0  0  0  0
    0.8257    4.0398   19.4794 C   0  0  0  0  0  0  0  0  0  0  0  0
   -1.4259    4.2128   18.2694 C   0  0  0  0  0  0  0  0  0  0  0  0
   -2.6844    4.8735   18.2793 C   0  0  0  0  0  0  0  0  0  0  0  0
   -2.9784    5.8234   19.2959 C   0  0  0  0  0  0  0  0  0  0  0  0
   -2.0143    6.1130   20.2990 C   0  0  0  0  0  0  0  0  0  0  0  0
   -0.7438    5.4569   20.2783 C   0  0  0  0  0  0  0  0  0  0  0  0
   -0.4514    4.5164   19.2737 C   0  0  0  0  0  0  0  0  0  0  0  0
    0.4098    6.1813   21.9250 H   0  0  0  0  0  0  0  0  0  0  0  0
  -10.6045    2.8841   12.4324 H   0  0  0  0  0  0  0  0  0  0  0  0
  -11.1426    2.2246   13.8822 H   0  0  0  0  0  0  0  0  0  0  0  0
   -2.6873    5.4160   13.6539 H   0  0  0  0  0  0  0  0  0  0  0  0
    3.1907    1.7887   17.0289 H   0  0  0  0  0  0  0  0  0  0  0  0
  1  6  1  0
  1 32  1  0
  1 33  1  0
  2  4  1  0
  2  6  1  0
  3  7  1  0
  3 20  1  0
  4  5  1  0
  5 21  1  0
  7  8  1  0
  7 34  1  0
  8  9  1  0
  9 10  1  0
 10 11  1  0
 10 12  1  0
 11 13  1  0
 12 14  1  0
 13 15  1  0
 14 15  1  0
 15 35  1  0
 16 18  2  0
 16 22  1  0
 17 23  1  0
 17 29  1  0
 17 31  1  0
 18 19  1  0
 18 26  1  0
 19 20  2  0
 20 21  1  0
 21 22  2  0
 23 24  2  0
 24 30  1  0
 25 26  2  0
 25 30  1  0
 26 27  1  0
 27 28  2  0
 28 29  1  0
 29 30  2  0
M  END
>  <CHROM.0>  (55) 
57.95076131,-86.67415939,-164.41208889

>  <CHROM.1>  (55) 
-52.12304145,-61.93099517,-168.70951990,97.90421074,-44.39070640,166.71052307
109.34375241,-92.07482561,172.33106305,-96.96357655,146.90990354,-2.63547511
3.94067167,16.36170490,2.70476357,0.07558120,-1.92641287

>  <Name>  (55) 
1uts_h

>  <RI>  (55) 
3.0543e+07

>  <Rbt.Current_Directory>  (55) 
/home/jta30/NA_complexes/1uts

>  <Rbt.Executable>  (55) 
rbdock ($Id: //depot/dev/client3/rdock/2013.1/src/exe/rbdock.cxx#4 $)

>  <Rbt.Library>  (55) 
libRbt.so (2013.1, Build901 2013/11/27)

>  <Rbt.Parameter_File>  (55) 
/software/dev_tools/swtree/cs400_centos7.2_pe2016-08/rdock/2013.1/centos7.2_conda/build/data/scripts/dock.prm

>  <Rbt.Receptor>  (55) 
1uts.prm

>  <SCORE>  (55) 
-10.9066

>  <SCORE.INTER>  (55) 
-17.4408

>  <SCORE.INTER.CONST>  (55) 
1

>  <SCORE.INTER.POLAR>  (55) 
-1.83432

>  <SCORE.INTER.REPUL>  (55) 
0.148968

>  <SCORE.INTER.ROT>  (55) 
11

>  <SCORE.INTER.VDW>  (55) 
-28.349

>  <SCORE.INTER.norm>  (55) 
-0.581361

>  <SCORE.INTRA>  (55) 
-1.51345

>  <SCORE.INTRA.DIHEDRAL>  (55) 
-2.37481

>  <SCORE.INTRA.DIHEDRAL.0>  (55) 
14.7121

>  <SCORE.INTRA.POLAR>  (55) 
0

>  <SCORE.INTRA.POLAR.0>  (55) 
0

>  <SCORE.INTRA.REPUL>  (55) 
0

>  <SCORE.INTRA.REPUL.0>  (55) 
0

>  <SCORE.INTRA.VDW>  (55) 
-0.326043

>  <SCORE.INTRA.VDW.0>  (55) 
-0.649219

>  <SCORE.INTRA.norm>  (55) 
-0.0504482

>  <SCORE.RESTR>  (55) 
0.678644

>  <SCORE.RESTR.CAVITY>  (55) 
0.678644

>  <SCORE.RESTR.norm>  (55) 
0.0226215

>  <SCORE.SYSTEM>  (55) 
7.36901

>  <SCORE.SYSTEM.CONST>  (55) 
0

>  <SCORE.SYSTEM.DIHEDRAL>  (55) 
4.28151

>  <SCORE.SYSTEM.POLAR>  (55) 
-0.884245

>  <SCORE.SYSTEM.REPUL>  (55) 
1.44912

>  <SCORE.SYSTEM.VDW>  (55) 
0.989077

>  <SCORE.SYSTEM.norm>  (55) 
0.245634

>  <SCORE.heavy>  (55) 
30

>  <SCORE.norm>  (55) 
-0.363554

>  <pdb_header>  (55) 
CRYST1    1.000    1.000    1.000  90.00  90.00  90.00 P 1           1

>  <Predicted_Rank>  (55) 
56.0

$$$$
1uts_h
     RDKit          3D

 35 38  0  0  0  0  0  0  0  0999 V2000
    5.7846    3.1125   15.8497 N   0  0  0  0  0  0  0  0  0  0  0  0
    4.0238    4.5933   16.7122 C   0  0  0  0  0  0  0  0  0  0  0  0
    2.2622    1.8035   16.0676 C   0  0  0  0  0  0  0  0  0  0  0  0
    3.1708    4.9232   17.9406 C   0  0  0  0  0  0  0  0  0  0  0  0
    2.2688    3.8373   18.1995 O   0  0  0  0  0  0  0  0  0  0  0  0
    4.9417    3.4114   17.0294 C   0  0  0  0  0  0  0  0  0  0  0  0
    2.4237    1.0729   17.3452 N   0  0  0  0  0  0  0  0  0  0  0  0
    3.3813   -0.0498   17.1625 C   0  0  0  0  0  0  0  0  0  0  0  0
    3.7191   -0.6687   18.5221 C   0  0  0  0  0  0  0  0  0  0  0  0
    4.5973   -1.8437   18.3239 N   0  0  0  0  0  0  0  0  0  0  0  0
    3.7564   -3.0535   18.0933 C   0  0  0  0  0  0  0  0  0  0  0  0
    5.4549   -2.0284   19.5286 C   0  0  0  0  0  0  0  0  0  0  0  0
    4.6651   -4.2768   17.8909 C   0  0  0  0  0  0  0  0  0  0  0  0
    6.3627   -3.2553   19.3286 C   0  0  0  0  0  0  0  0  0  0  0  0
    5.5223   -4.4627   19.0959 N   0  0  0  0  0  0  0  0  0  0  0  0
   -0.8908    4.8312   16.3936 C   0  0  0  0  0  0  0  0  0  0  0  0
   -4.9339    4.0121   11.4057 N   0  0  0  0  0  0  0  0  0  0  0  0
   -0.9211    3.8825   15.3437 C   0  0  0  0  0  0  0  0  0  0  0  0
    0.1041    2.9044   15.2436 C   0  0  0  0  0  0  0  0  0  0  0  0
    1.1590    2.8732   16.1965 C   0  0  0  0  0  0  0  0  0  0  0  0
    1.1964    3.8409   17.2450 C   0  0  0  0  0  0  0  0  0  0  0  0
    0.1658    4.8157   17.3419 C   0  0  0  0  0  0  0  0  0  0  0  0
   -4.0803    4.1785   10.2915 C   0  0  0  0  0  0  0  0  0  0  0  0
   -2.7283    4.2507   10.6972 C   0  0  0  0  0  0  0  0  0  0  0  0
   -1.6732    4.0973   13.0269 C   0  0  0  0  0  0  0  0  0  0  0  0
   -1.9635    3.9205   14.4070 C   0  0  0  0  0  0  0  0  0  0  0  0
   -3.3119    3.7752   14.8348 C   0  0  0  0  0  0  0  0  0  0  0  0
   -4.3671    3.8046   13.8833 C   0  0  0  0  0  0  0  0  0  0  0  0
   -4.0707    3.9688   12.4940 C   0  0  0  0  0  0  0  0  0  0  0  0
   -2.7374    4.1132   12.0690 C   0  0  0  0  0  0  0  0  0  0  0  0
   -5.9118    3.9360   11.4091 H   0  0  0  0  0  0  0  0  0  0  0  0
    6.5091    3.8379   15.7524 H   0  0  0  0  0  0  0  0  0  0  0  0
    6.2341    2.1941   15.9730 H   0  0  0  0  0  0  0  0  0  0  0  0
    1.5103    0.7033   17.6465 H   0  0  0  0  0  0  0  0  0  0  0  0
    6.1328   -5.2802   18.9545 H   0  0  0  0  0  0  0  0  0  0  0  0
  1  6  1  0
  1 32  1  0
  1 33  1  0
  2  4  1  0
  2  6  1  0
  3  7  1  0
  3 20  1  0
  4  5  1  0
  5 21  1  0
  7  8  1  0
  7 34  1  0
  8  9  1  0
  9 10  1  0
 10 11  1  0
 10 12  1  0
 11 13  1  0
 12 14  1  0
 13 15  1  0
 14 15  1  0
 15 35  1  0
 16 18  2  0
 16 22  1  0
 17 23  1  0
 17 29  1  0
 17 31  1  0
 18 19  1  0
 18 26  1  0
 19 20  2  0
 20 21  1  0
 21 22  2  0
 23 24  2  0
 24 30  1  0
 25 26  2  0
 25 30  1  0
 26 27  1  0
 27 28  2  0
 28 29  1  0
 29 30  2  0
M  END
>  <CHROM.0>  (56) 
60.76204212,-85.70592561,-56.31995443

>  <CHROM.1>  (56) 
73.49843589,-66.40984237,-178.84883448,173.81415485,-127.67445568,-74.79473827
105.85997760,171.16391125,176.07578922,-87.18574545,120.80715078,1.33734001
1.94402377,16.06239635,-0.54552499,-0.61167103,0.00650366

>  <Name>  (56) 
1uts_h

>  <RI>  (56) 
3.0543e+07

>  <Rbt.Current_Directory>  (56) 
/home/jta30/NA_complexes/1uts

>  <Rbt.Executable>  (56) 
rbdock ($Id: //depot/dev/client3/rdock/2013.1/src/exe/rbdock.cxx#4 $)

>  <Rbt.Library>  (56) 
libRbt.so (2013.1, Build901 2013/11/27)

>  <Rbt.Parameter_File>  (56) 
/software/dev_tools/swtree/cs400_centos7.2_pe2016-08/rdock/2013.1/centos7.2_conda/build/data/scripts/dock.prm

>  <Rbt.Receptor>  (56) 
1uts.prm

>  <SCORE>  (56) 
-7.44123

>  <SCORE.INTER>  (56) 
-7.3578

>  <SCORE.INTER.CONST>  (56) 
1

>  <SCORE.INTER.POLAR>  (56) 
0

>  <SCORE.INTER.REPUL>  (56) 
0.000622506

>  <SCORE.INTER.ROT>  (56) 
11

>  <SCORE.INTER.VDW>  (56) 
-23.7609

>  <SCORE.INTER.norm>  (56) 
-0.24526

>  <SCORE.INTRA>  (56) 
-4.80928

>  <SCORE.INTRA.DIHEDRAL>  (56) 
-5.87921

>  <SCORE.INTRA.DIHEDRAL.0>  (56) 
14.7121

>  <SCORE.INTRA.POLAR>  (56) 
0

>  <SCORE.INTRA.POLAR.0>  (56) 
0

>  <SCORE.INTRA.REPUL>  (56) 
0

>  <SCORE.INTRA.REPUL.0>  (56) 
0

>  <SCORE.INTRA.VDW>  (56) 
-1.86967

>  <SCORE.INTRA.VDW.0>  (56) 
-0.649219

>  <SCORE.INTRA.norm>  (56) 
-0.160309

>  <SCORE.RESTR>  (56) 
0

>  <SCORE.RESTR.CAVITY>  (56) 
0

>  <SCORE.RESTR.norm>  (56) 
0

>  <SCORE.SYSTEM>  (56) 
4.72585

>  <SCORE.SYSTEM.CONST>  (56) 
0

>  <SCORE.SYSTEM.DIHEDRAL>  (56) 
3.05377

>  <SCORE.SYSTEM.POLAR>  (56) 
-0.873618

>  <SCORE.SYSTEM.REPUL>  (56) 
0.858938

>  <SCORE.SYSTEM.VDW>  (56) 
1.87458

>  <SCORE.SYSTEM.norm>  (56) 
0.157528

>  <SCORE.heavy>  (56) 
30

>  <SCORE.norm>  (56) 
-0.248041

>  <pdb_header>  (56) 
CRYST1    1.000    1.000    1.000  90.00  90.00  90.00 P 1           1

>  <Predicted_Rank>  (56) 
57.0

$$$$
1uts_h
     RDKit          3D

 35 38  0  0  0  0  0  0  0  0999 V2000
    4.2659    4.9552   18.9454 N   0  0  0  0  0  0  0  0  0  0  0  0
    2.8920    6.6977   20.0005 C   0  0  0  0  0  0  0  0  0  0  0  0
    2.5781    4.3257   16.0150 C   0  0  0  0  0  0  0  0  0  0  0  0
    1.8018    6.4958   18.9441 C   0  0  0  0  0  0  0  0  0  0  0  0
    1.6316    5.0922   18.6978 O   0  0  0  0  0  0  0  0  0  0  0  0
    4.2576    6.3652   19.3964 C   0  0  0  0  0  0  0  0  0  0  0  0
    2.9804    2.9159   16.2220 N   0  0  0  0  0  0  0  0  0  0  0  0
    4.4280    2.8521   16.5558 C   0  0  0  0  0  0  0  0  0  0  0  0
    4.8489    1.3935   16.7582 C   0  0  0  0  0  0  0  0  0  0  0  0
    4.0116    0.7811   17.8140 N   0  0  0  0  0  0  0  0  0  0  0  0
    4.4834    1.2482   19.1493 C   0  0  0  0  0  0  0  0  0  0  0  0
    4.1045   -0.7032   17.7195 C   0  0  0  0  0  0  0  0  0  0  0  0
    3.6184    0.6111   20.2489 C   0  0  0  0  0  0  0  0  0  0  0  0
    3.2416   -1.3423   18.8225 C   0  0  0  0  0  0  0  0  0  0  0  0
    3.7119   -0.8735   20.1557 N   0  0  0  0  0  0  0  0  0  0  0  0
   -1.6811    4.8499   16.9091 C   0  0  0  0  0  0  0  0  0  0  0  0
   -5.2938    3.8090   11.7382 N   0  0  0  0  0  0  0  0  0  0  0  0
   -1.2663    4.4986   15.6023 C   0  0  0  0  0  0  0  0  0  0  0  0
    0.1154    4.3307   15.3193 C   0  0  0  0  0  0  0  0  0  0  0  0
    1.0833    4.5114   16.3452 C   0  0  0  0  0  0  0  0  0  0  0  0
    0.6640    4.8817   17.6583 C   0  0  0  0  0  0  0  0  0  0  0  0
   -0.7207    5.0453   17.9365 C   0  0  0  0  0  0  0  0  0  0  0  0
   -6.3597    3.5745   12.6364 C   0  0  0  0  0  0  0  0  0  0  0  0
   -5.9076    3.6029   13.9752 C   0  0  0  0  0  0  0  0  0  0  0  0
   -3.5730    4.0276   14.9411 C   0  0  0  0  0  0  0  0  0  0  0  0
   -2.2263    4.3235   14.5956 C   0  0  0  0  0  0  0  0  0  0  0  0
   -1.8563    4.4483   13.2282 C   0  0  0  0  0  0  0  0  0  0  0  0
   -2.8322    4.2797   12.2091 C   0  0  0  0  0  0  0  0  0  0  0  0
   -4.1891    3.9959   12.5603 C   0  0  0  0  0  0  0  0  0  0  0  0
   -4.5569    3.8714   13.9126 C   0  0  0  0  0  0  0  0  0  0  0  0
   -5.3279    3.8409   10.7585 H   0  0  0  0  0  0  0  0  0  0  0  0
    5.2172    4.6951   18.6485 H   0  0  0  0  0  0  0  0  0  0  0  0
    3.9705    4.3451   19.7208 H   0  0  0  0  0  0  0  0  0  0  0  0
    2.7994    2.3781   15.3620 H   0  0  0  0  0  0  0  0  0  0  0  0
    3.1274   -1.2966   20.8908 H   0  0  0  0  0  0  0  0  0  0  0  0
  1  6  1  0
  1 32  1  0
  1 33  1  0
  2  4  1  0
  2  6  1  0
  3  7  1  0
  3 20  1  0
  4  5  1  0
  5 21  1  0
  7  8  1  0
  7 34  1  0
  8  9  1  0
  9 10  1  0
 10 11  1  0
 10 12  1  0
 11 13  1  0
 12 14  1  0
 13 15  1  0
 14 15  1  0
 15 35  1  0
 16 18  2  0
 16 22  1  0
 17 23  1  0
 17 29  1  0
 17 31  1  0
 18 19  1  0
 18 26  1  0
 19 20  2  0
 20 21  1  0
 21 22  2  0
 23 24  2  0
 24 30  1  0
 25 26  2  0
 25 30  1  0
 26 27  1  0
 27 28  2  0
 28 29  1  0
 29 30  2  0
M  END
>  <CHROM.0>  (57) 
-50.56050948,81.18052112,-58.29767393

>  <CHROM.1>  (57) 
-172.91674471,71.27566180,-60.11790453,-152.58558292,-89.59378459,-176.92204947
104.37614137,-179.50283390,-56.84579742,-76.82525086,-22.25211817,0.70087735
3.43777444,16.63537122,-0.07336424,-0.61243991,0.22692190

>  <Name>  (57) 
1uts_h

>  <RI>  (57) 
3.0543e+07

>  <Rbt.Current_Directory>  (57) 
/home/jta30/NA_complexes/1uts

>  <Rbt.Executable>  (57) 
rbdock ($Id: //depot/dev/client3/rdock/2013.1/src/exe/rbdock.cxx#4 $)

>  <Rbt.Library>  (57) 
libRbt.so (2013.1, Build901 2013/11/27)

>  <Rbt.Parameter_File>  (57) 
/software/dev_tools/swtree/cs400_centos7.2_pe2016-08/rdock/2013.1/centos7.2_conda/build/data/scripts/dock.prm

>  <Rbt.Receptor>  (57) 
1uts.prm

>  <SCORE>  (57) 
-7.99864

>  <SCORE.INTER>  (57) 
-9.22795

>  <SCORE.INTER.CONST>  (57) 
1

>  <SCORE.INTER.POLAR>  (57) 
0

>  <SCORE.INTER.REPUL>  (57) 
0

>  <SCORE.INTER.ROT>  (57) 
11

>  <SCORE.INTER.VDW>  (57) 
-25.6279

>  <SCORE.INTER.norm>  (57) 
-0.307598

>  <SCORE.INTRA>  (57) 
-4.56289

>  <SCORE.INTRA.DIHEDRAL>  (57) 
-6.47196

>  <SCORE.INTRA.DIHEDRAL.0>  (57) 
14.7121

>  <SCORE.INTRA.POLAR>  (57) 
0

>  <SCORE.INTRA.POLAR.0>  (57) 
0

>  <SCORE.INTRA.REPUL>  (57) 
0.0223249

>  <SCORE.INTRA.REPUL.0>  (57) 
0

>  <SCORE.INTRA.VDW>  (57) 
-1.43853

>  <SCORE.INTRA.VDW.0>  (57) 
-0.649219

>  <SCORE.INTRA.norm>  (57) 
-0.152096

>  <SCORE.RESTR>  (57) 
0

>  <SCORE.RESTR.CAVITY>  (57) 
0

>  <SCORE.RESTR.norm>  (57) 
0

>  <SCORE.SYSTEM>  (57) 
5.79219

>  <SCORE.SYSTEM.CONST>  (57) 
0

>  <SCORE.SYSTEM.DIHEDRAL>  (57) 
2.63801

>  <SCORE.SYSTEM.POLAR>  (57) 
-0.0937226

>  <SCORE.SYSTEM.REPUL>  (57) 
0.452079

>  <SCORE.SYSTEM.VDW>  (57) 
2.53145

>  <SCORE.SYSTEM.norm>  (57) 
0.193073

>  <SCORE.heavy>  (57) 
30

>  <SCORE.norm>  (57) 
-0.266621

>  <pdb_header>  (57) 
CRYST1    1.000    1.000    1.000  90.00  90.00  90.00 P 1           1

>  <Predicted_Rank>  (57) 
58.0

$$$$
1uts_h
     RDKit          3D

 35 38  0  0  0  0  0  0  0  0999 V2000
    7.7941    0.7482   18.6402 N   0  0  0  0  0  0  0  0  0  0  0  0
    6.0795    2.4906   18.3926 C   0  0  0  0  0  0  0  0  0  0  0  0
    2.7932    0.1271   16.3152 C   0  0  0  0  0  0  0  0  0  0  0  0
    4.6295    2.7532   17.9755 C   0  0  0  0  0  0  0  0  0  0  0  0
    4.4904    2.5225   16.5658 O   0  0  0  0  0  0  0  0  0  0  0  0
    6.4198    1.0174   18.1604 C   0  0  0  0  0  0  0  0  0  0  0  0
    2.0117   -0.5039   17.4030 N   0  0  0  0  0  0  0  0  0  0  0  0
    2.8045   -1.6016   18.0175 C   0  0  0  0  0  0  0  0  0  0  0  0
    3.8578   -1.0140   18.9612 C   0  0  0  0  0  0  0  0  0  0  0  0
    5.0149   -1.9337   19.0417 N   0  0  0  0  0  0  0  0  0  0  0  0
    5.9042   -1.5093   20.1610 C   0  0  0  0  0  0  0  0  0  0  0  0
    5.7570   -1.9084   17.7496 C   0  0  0  0  0  0  0  0  0  0  0  0
    7.1093   -2.4600   20.2453 C   0  0  0  0  0  0  0  0  0  0  0  0
    6.9661   -2.8573   17.8341 C   0  0  0  0  0  0  0  0  0  0  0  0
    7.8526   -2.4343   18.9537 N   0  0  0  0  0  0  0  0  0  0  0  0
    1.2610    4.1509   15.4930 C   0  0  0  0  0  0  0  0  0  0  0  0
   -4.9570    3.8309   13.8984 N   0  0  0  0  0  0  0  0  0  0  0  0
    0.4178    3.0240   15.3434 C   0  0  0  0  0  0  0  0  0  0  0  0
    0.9207    1.7229   15.6110 C   0  0  0  0  0  0  0  0  0  0  0  0
    2.2678    1.5489   16.0318 C   0  0  0  0  0  0  0  0  0  0  0  0
    3.1211    2.6851   16.1662 C   0  0  0  0  0  0  0  0  0  0  0  0
    2.6112    3.9854   15.8999 C   0  0  0  0  0  0  0  0  0  0  0  0
   -5.4545    4.0673   15.2001 C   0  0  0  0  0  0  0  0  0  0  0  0
   -4.4234    3.9650   16.1613 C   0  0  0  0  0  0  0  0  0  0  0  0
   -1.9243    3.4734   15.8840 C   0  0  0  0  0  0  0  0  0  0  0  0
   -0.9088    3.2034   14.9267 C   0  0  0  0  0  0  0  0  0  0  0  0
   -1.2396    3.1224   13.5460 C   0  0  0  0  0  0  0  0  0  0  0  0
   -2.5831    3.3135   13.1241 C   0  0  0  0  0  0  0  0  0  0  0  0
   -3.6001    3.5988   14.0882 C   0  0  0  0  0  0  0  0  0  0  0  0
   -3.2748    3.6786   15.4546 C   0  0  0  0  0  0  0  0  0  0  0  0
   -5.4546    3.8376   13.0532 H   0  0  0  0  0  0  0  0  0  0  0  0
    7.9863   -0.2619   18.5833 H   0  0  0  0  0  0  0  0  0  0  0  0
    8.4688    1.2586   18.0527 H   0  0  0  0  0  0  0  0  0  0  0  0
    1.1343   -0.8838   17.0188 H   0  0  0  0  0  0  0  0  0  0  0  0
    8.6563   -3.0759   19.0124 H   0  0  0  0  0  0  0  0  0  0  0  0
  1  6  1  0
  1 32  1  0
  1 33  1  0
  2  4  1  0
  2  6  1  0
  3  7  1  0
  3 20  1  0
  4  5  1  0
  5 21  1  0
  7  8  1  0
  7 34  1  0
  8  9  1  0
  9 10  1  0
 10 11  1  0
 10 12  1  0
 11 13  1  0
 12 14  1  0
 13 15  1  0
 14 15  1  0
 15 35  1  0
 16 18  2  0
 16 22  1  0
 17 23  1  0
 17 29  1  0
 17 31  1  0
 18 19  1  0
 18 26  1  0
 19 20  2  0
 20 21  1  0
 21 22  2  0
 23 24  2  0
 24 30  1  0
 25 26  2  0
 25 30  1  0
 26 27  1  0
 27 28  2  0
 28 29  1  0
 29 30  2  0
M  END
>  <CHROM.0>  (58) 
-176.45452766,157.93911002,-55.26995276

>  <CHROM.1>  (58) 
173.64657673,-63.74491962,-176.60525410,-158.45803065,-60.60595117,176.56286656
-97.28117972,77.76929746,-152.24494841,-168.42259414,-86.68813920,2.30541247
1.28788634,16.81865126,-0.54475483,-0.23125811,-0.34628135

>  <Name>  (58) 
1uts_h

>  <RI>  (58) 
3.0543e+07

>  <Rbt.Current_Directory>  (58) 
/home/jta30/NA_complexes/1uts

>  <Rbt.Executable>  (58) 
rbdock ($Id: //depot/dev/client3/rdock/2013.1/src/exe/rbdock.cxx#4 $)

>  <Rbt.Library>  (58) 
libRbt.so (2013.1, Build901 2013/11/27)

>  <Rbt.Parameter_File>  (58) 
/software/dev_tools/swtree/cs400_centos7.2_pe2016-08/rdock/2013.1/centos7.2_conda/build/data/scripts/dock.prm

>  <Rbt.Receptor>  (58) 
1uts.prm

>  <SCORE>  (58) 
-9.46429

>  <SCORE.INTER>  (58) 
-3.43136

>  <SCORE.INTER.CONST>  (58) 
1

>  <SCORE.INTER.POLAR>  (58) 
0

>  <SCORE.INTER.REPUL>  (58) 
0

>  <SCORE.INTER.ROT>  (58) 
11

>  <SCORE.INTER.VDW>  (58) 
-19.8314

>  <SCORE.INTER.norm>  (58) 
-0.114379

>  <SCORE.INTRA>  (58) 
-7.23473

>  <SCORE.INTRA.DIHEDRAL>  (58) 
-4.6057

>  <SCORE.INTRA.DIHEDRAL.0>  (58) 
14.7121

>  <SCORE.INTRA.POLAR>  (58) 
-0.977943

>  <SCORE.INTRA.POLAR.0>  (58) 
0

>  <SCORE.INTRA.REPUL>  (58) 
0

>  <SCORE.INTRA.REPUL.0>  (58) 
0

>  <SCORE.INTRA.VDW>  (58) 
-1.60687

>  <SCORE.INTRA.VDW.0>  (58) 
-0.649219

>  <SCORE.INTRA.norm>  (58) 
-0.241158

>  <SCORE.RESTR>  (58) 
0

>  <SCORE.RESTR.CAVITY>  (58) 
0

>  <SCORE.RESTR.norm>  (58) 
0

>  <SCORE.SYSTEM>  (58) 
1.2018

>  <SCORE.SYSTEM.CONST>  (58) 
0

>  <SCORE.SYSTEM.DIHEDRAL>  (58) 
2.51543

>  <SCORE.SYSTEM.POLAR>  (58) 
-0.119706

>  <SCORE.SYSTEM.REPUL>  (58) 
0.105653

>  <SCORE.SYSTEM.VDW>  (58) 
-0.177175

>  <SCORE.SYSTEM.norm>  (58) 
0.04006

>  <SCORE.heavy>  (58) 
30

>  <SCORE.norm>  (58) 
-0.315476

>  <pdb_header>  (58) 
CRYST1    1.000    1.000    1.000  90.00  90.00  90.00 P 1           1

>  <Predicted_Rank>  (58) 
59.0

$$$$
1uts_h
     RDKit          3D

 35 38  0  0  0  0  0  0  0  0999 V2000
    6.0156   -1.4901   17.5482 N   0  0  0  0  0  0  0  0  0  0  0  0
    3.9900   -0.1009   17.4822 C   0  0  0  0  0  0  0  0  0  0  0  0
    1.8846    4.1321   16.6280 C   0  0  0  0  0  0  0  0  0  0  0  0
    2.9493    0.5317   16.5538 C   0  0  0  0  0  0  0  0  0  0  0  0
    2.0025    1.2745   17.3358 O   0  0  0  0  0  0  0  0  0  0  0  0
    5.0474   -0.8253   16.6471 C   0  0  0  0  0  0  0  0  0  0  0  0
    3.1052    4.0465   15.7944 N   0  0  0  0  0  0  0  0  0  0  0  0
    4.1422    4.9685   16.3286 C   0  0  0  0  0  0  0  0  0  0  0  0
    5.0534    4.2149   17.3019 C   0  0  0  0  0  0  0  0  0  0  0  0
    4.2601    3.7558   18.4641 N   0  0  0  0  0  0  0  0  0  0  0  0
    4.0366    4.9021   19.3915 C   0  0  0  0  0  0  0  0  0  0  0  0
    4.9915    2.6592   19.1595 C   0  0  0  0  0  0  0  0  0  0  0  0
    3.2161    4.4280   20.6020 C   0  0  0  0  0  0  0  0  0  0  0  0
    4.1725    2.1863   20.3741 C   0  0  0  0  0  0  0  0  0  0  0  0
    3.9477    3.3322   21.2986 N   0  0  0  0  0  0  0  0  0  0  0  0
   -1.1332    1.2726   15.2384 C   0  0  0  0  0  0  0  0  0  0  0  0
   -5.4145    4.3312   11.5279 N   0  0  0  0  0  0  0  0  0  0  0  0
   -1.2359    2.6408   14.8908 C   0  0  0  0  0  0  0  0  0  0  0  0
   -0.2549    3.5621   15.3448 C   0  0  0  0  0  0  0  0  0  0  0  0
    0.8319    3.1141   16.1448 C   0  0  0  0  0  0  0  0  0  0  0  0
    0.9247    1.7368   16.5078 C   0  0  0  0  0  0  0  0  0  0  0  0
   -0.0586    0.8186   16.0478 C   0  0  0  0  0  0  0  0  0  0  0  0
   -4.6735    4.3510   10.3245 C   0  0  0  0  0  0  0  0  0  0  0  0
   -3.3280    3.9836   10.5536 C   0  0  0  0  0  0  0  0  0  0  0  0
   -2.1285    3.2965   12.7107 C   0  0  0  0  0  0  0  0  0  0  0  0
   -2.3111    3.0754   14.1029 C   0  0  0  0  0  0  0  0  0  0  0  0
   -3.5870    3.2890   14.6932 C   0  0  0  0  0  0  0  0  0  0  0  0
   -4.6783    3.7206   13.8917 C   0  0  0  0  0  0  0  0  0  0  0  0
   -4.4949    3.9288   12.4889 C   0  0  0  0  0  0  0  0  0  0  0  0
   -3.2331    3.7186   11.9032 C   0  0  0  0  0  0  0  0  0  0  0  0
   -6.3635    4.5445   11.6543 H   0  0  0  0  0  0  0  0  0  0  0  0
    6.3709   -0.8086   18.2337 H   0  0  0  0  0  0  0  0  0  0  0  0
    5.5483   -2.2624   18.0442 H   0  0  0  0  0  0  0  0  0  0  0  0
    2.8766    4.3076   14.8242 H   0  0  0  0  0  0  0  0  0  0  0  0
    3.3927    3.0141   22.1060 H   0  0  0  0  0  0  0  0  0  0  0  0
  1  6  1  0
  1 32  1  0
  1 33  1  0
  2  4  1  0
  2  6  1  0
  3  7  1  0
  3 20  1  0
  4  5  1  0
  5 21  1  0
  7  8  1  0
  7 34  1  0
  8  9  1  0
  9 10  1  0
 10 11  1  0
 10 12  1  0
 11 13  1  0
 12 14  1  0
 13 15  1  0
 14 15  1  0
 15 35  1  0
 16 18  2  0
 16 22  1  0
 17 23  1  0
 17 29  1  0
 17 31  1  0
 18 19  1  0
 18 26  1  0
 19 20  2  0
 20 21  1  0
 21 22  2  0
 23 24  2  0
 24 30  1  0
 25 26  2  0
 25 30  1  0
 26 27  1  0
 27 28  2  0
 28 29  1  0
 29 30  2  0
M  END
>  <CHROM.0>  (59) 
178.63061810,66.87933793,-177.17524918

>  <CHROM.1>  (59) 
-51.85767070,-176.71593996,-177.31321006,-176.24371050,-101.35686824,-172.80749400
-106.35643289,93.05431114,-63.45940813,-78.19349599,-100.31185837,1.03135378
2.79266287,16.07028568,-0.12813546,0.65540159,-2.70245971

>  <Name>  (59) 
1uts_h

>  <RI>  (59) 
3.0543e+07

>  <Rbt.Current_Directory>  (59) 
/home/jta30/NA_complexes/1uts

>  <Rbt.Executable>  (59) 
rbdock ($Id: //depot/dev/client3/rdock/2013.1/src/exe/rbdock.cxx#4 $)

>  <Rbt.Library>  (59) 
libRbt.so (2013.1, Build901 2013/11/27)

>  <Rbt.Parameter_File>  (59) 
/software/dev_tools/swtree/cs400_centos7.2_pe2016-08/rdock/2013.1/centos7.2_conda/build/data/scripts/dock.prm

>  <Rbt.Receptor>  (59) 
1uts.prm

>  <SCORE>  (59) 
-12.0091

>  <SCORE.INTER>  (59) 
-9.54471

>  <SCORE.INTER.CONST>  (59) 
1

>  <SCORE.INTER.POLAR>  (59) 
-0.854478

>  <SCORE.INTER.REPUL>  (59) 
0

>  <SCORE.INTER.ROT>  (59) 
11

>  <SCORE.INTER.VDW>  (59) 
-23.0395

>  <SCORE.INTER.norm>  (59) 
-0.318157

>  <SCORE.INTRA>  (59) 
-6.11251

>  <SCORE.INTRA.DIHEDRAL>  (59) 
-6.17025

>  <SCORE.INTRA.DIHEDRAL.0>  (59) 
14.7121

>  <SCORE.INTRA.POLAR>  (59) 
0

>  <SCORE.INTRA.POLAR.0>  (59) 
0

>  <SCORE.INTRA.REPUL>  (59) 
0

>  <SCORE.INTRA.REPUL.0>  (59) 
0

>  <SCORE.INTRA.VDW>  (59) 
-3.02738

>  <SCORE.INTRA.VDW.0>  (59) 
-0.649219

>  <SCORE.INTRA.norm>  (59) 
-0.20375

>  <SCORE.RESTR>  (59) 
0

>  <SCORE.RESTR.CAVITY>  (59) 
0

>  <SCORE.RESTR.norm>  (59) 
0

>  <SCORE.SYSTEM>  (59) 
3.64808

>  <SCORE.SYSTEM.CONST>  (59) 
0

>  <SCORE.SYSTEM.DIHEDRAL>  (59) 
0.518234

>  <SCORE.SYSTEM.POLAR>  (59) 
-0.192112

>  <SCORE.SYSTEM.REPUL>  (59) 
1.07843

>  <SCORE.SYSTEM.VDW>  (59) 
-1.35002

>  <SCORE.SYSTEM.norm>  (59) 
0.121603

>  <SCORE.heavy>  (59) 
30

>  <SCORE.norm>  (59) 
-0.400304

>  <pdb_header>  (59) 
CRYST1    1.000    1.000    1.000  90.00  90.00  90.00 P 1           1

>  <Predicted_Rank>  (59) 
60.0

$$$$
1uts_h
     RDKit          3D

 35 38  0  0  0  0  0  0  0  0999 V2000
   -1.2088    5.7862   10.6601 N   0  0  0  0  0  0  0  0  0  0  0  0
   -2.4403    3.8564   11.5525 C   0  0  0  0  0  0  0  0  0  0  0  0
   -2.9337    4.6474   16.0897 C   0  0  0  0  0  0  0  0  0  0  0  0
   -1.5724    3.6159   12.7911 C   0  0  0  0  0  0  0  0  0  0  0  0
   -2.3396    2.9154   13.7814 O   0  0  0  0  0  0  0  0  0  0  0  0
   -1.5663    4.3720   10.4078 C   0  0  0  0  0  0  0  0  0  0  0  0
   -4.1732    4.0945   15.4979 N   0  0  0  0  0  0  0  0  0  0  0  0
   -5.0096    3.4852   16.5656 C   0  0  0  0  0  0  0  0  0  0  0  0
   -6.4305    4.0525   16.4974 C   0  0  0  0  0  0  0  0  0  0  0  0
   -7.2044    3.3204   15.4699 N   0  0  0  0  0  0  0  0  0  0  0  0
   -6.7516    3.7481   14.1149 C   0  0  0  0  0  0  0  0  0  0  0  0
   -8.6561    3.6066   15.6475 C   0  0  0  0  0  0  0  0  0  0  0  0
   -7.5561    2.9924   13.0448 C   0  0  0  0  0  0  0  0  0  0  0  0
   -9.4624    2.8534   14.5742 C   0  0  0  0  0  0  0  0  0  0  0  0
   -9.0080    3.2793   13.2212 N   0  0  0  0  0  0  0  0  0  0  0  0
    0.2224    1.6084   16.2225 C   0  0  0  0  0  0  0  0  0  0  0  0
    2.9103    1.8667   22.1143 N   0  0  0  0  0  0  0  0  0  0  0  0
   -0.0195    2.4327   17.3474 C   0  0  0  0  0  0  0  0  0  0  0  0
   -1.0435    3.4158   17.2975 C   0  0  0  0  0  0  0  0  0  0  0  0
   -1.8284    3.5726   16.1223 C   0  0  0  0  0  0  0  0  0  0  0  0
   -1.5720    2.7514   14.9834 C   0  0  0  0  0  0  0  0  0  0  0  0
   -0.5477    1.7669   15.0402 C   0  0  0  0  0  0  0  0  0  0  0  0
    1.9968    2.5345   22.9613 C   0  0  0  0  0  0  0  0  0  0  0  0
    0.8823    3.0056   22.2310 C   0  0  0  0  0  0  0  0  0  0  0  0
    0.3080    2.8000   19.7426 C   0  0  0  0  0  0  0  0  0  0  0  0
    0.7595    2.2732   18.5020 C   0  0  0  0  0  0  0  0  0  0  0  0
    1.9986    1.5785   18.4358 C   0  0  0  0  0  0  0  0  0  0  0  0
    2.7829    1.4095   19.6088 C   0  0  0  0  0  0  0  0  0  0  0  0
    2.3193    1.9286   20.8581 C   0  0  0  0  0  0  0  0  0  0  0  0
    1.0940    2.6167   20.9254 C   0  0  0  0  0  0  0  0  0  0  0  0
    3.7627    1.4478   22.3590 H   0  0  0  0  0  0  0  0  0  0  0  0
   -0.7975    5.8742   11.6002 H   0  0  0  0  0  0  0  0  0  0  0  0
   -0.5243    6.0979    9.9565 H   0  0  0  0  0  0  0  0  0  0  0  0
   -3.9291    3.3784   14.7984 H   0  0  0  0  0  0  0  0  0  0  0  0
   -9.5438    2.7676   12.5056 H   0  0  0  0  0  0  0  0  0  0  0  0
  1  6  1  0
  1 32  1  0
  1 33  1  0
  2  4  1  0
  2  6  1  0
  3  7  1  0
  3 20  1  0
  4  5  1  0
  5 21  1  0
  7  8  1  0
  7 34  1  0
  8  9  1  0
  9 10  1  0
 10 11  1  0
 10 12  1  0
 11 13  1  0
 12 14  1  0
 13 15  1  0
 14 15  1  0
 15 35  1  0
 16 18  2  0
 16 22  1  0
 17 23  1  0
 17 29  1  0
 17 31  1  0
 18 19  1  0
 18 26  1  0
 19 20  2  0
 20 21  1  0
 21 22  2  0
 23 24  2  0
 24 30  1  0
 25 26  2  0
 25 30  1  0
 26 27  1  0
 27 28  2  0
 28 29  1  0
 29 30  2  0
M  END
>  <CHROM.0>  (60) 
-42.20242286,-87.82069371,-56.94748860

>  <CHROM.1>  (60) 
52.84308826,-169.90039568,-74.61178690,89.03411920,-135.28788561,-176.45636135
103.57602204,127.73082335,82.60427615,-74.03117232,-162.16788247,-2.39466711
3.12963159,16.21614323,-2.43424934,-0.03074614,1.74458093

>  <Name>  (60) 
1uts_h

>  <RI>  (60) 
3.0543e+07

>  <Rbt.Current_Directory>  (60) 
/home/jta30/NA_complexes/1uts

>  <Rbt.Executable>  (60) 
rbdock ($Id: //depot/dev/client3/rdock/2013.1/src/exe/rbdock.cxx#4 $)

>  <Rbt.Library>  (60) 
libRbt.so (2013.1, Build901 2013/11/27)

>  <Rbt.Parameter_File>  (60) 
/software/dev_tools/swtree/cs400_centos7.2_pe2016-08/rdock/2013.1/centos7.2_conda/build/data/scripts/dock.prm

>  <Rbt.Receptor>  (60) 
1uts.prm

>  <SCORE>  (60) 
-10.5671

>  <SCORE.INTER>  (60) 
-12.495

>  <SCORE.INTER.CONST>  (60) 
1

>  <SCORE.INTER.POLAR>  (60) 
-1.90261

>  <SCORE.INTER.REPUL>  (60) 
0.0597772

>  <SCORE.INTER.ROT>  (60) 
11

>  <SCORE.INTER.VDW>  (60) 
-22.725

>  <SCORE.INTER.norm>  (60) 
-0.416499

>  <SCORE.INTRA>  (60) 
-3.6937

>  <SCORE.INTRA.DIHEDRAL>  (60) 
-1.89704

>  <SCORE.INTRA.DIHEDRAL.0>  (60) 
14.7121

>  <SCORE.INTRA.POLAR>  (60) 
-0.712437

>  <SCORE.INTRA.POLAR.0>  (60) 
0

>  <SCORE.INTRA.REPUL>  (60) 
0

>  <SCORE.INTRA.REPUL.0>  (60) 
0

>  <SCORE.INTRA.VDW>  (60) 
-0.322895

>  <SCORE.INTRA.VDW.0>  (60) 
-0.649219

>  <SCORE.INTRA.norm>  (60) 
-0.123123

>  <SCORE.RESTR>  (60) 
0

>  <SCORE.RESTR.CAVITY>  (60) 
0

>  <SCORE.RESTR.norm>  (60) 
0

>  <SCORE.SYSTEM>  (60) 
5.62158

>  <SCORE.SYSTEM.CONST>  (60) 
0

>  <SCORE.SYSTEM.DIHEDRAL>  (60) 
4.8433

>  <SCORE.SYSTEM.POLAR>  (60) 
-0.943896

>  <SCORE.SYSTEM.REPUL>  (60) 
0.87195

>  <SCORE.SYSTEM.VDW>  (60) 
2.04943

>  <SCORE.SYSTEM.norm>  (60) 
0.187386

>  <SCORE.heavy>  (60) 
30

>  <SCORE.norm>  (60) 
-0.352236

>  <pdb_header>  (60) 
CRYST1    1.000    1.000    1.000  90.00  90.00  90.00 P 1           1

>  <Predicted_Rank>  (60) 
61.0

$$$$
1uts_h
     RDKit          3D

 35 38  0  0  0  0  0  0  0  0999 V2000
   -7.0041    4.8049   16.4333 N   0  0  0  0  0  0  0  0  0  0  0  0
   -5.0410    3.7234   15.4265 C   0  0  0  0  0  0  0  0  0  0  0  0
   -1.2268    0.6269   15.2735 C   0  0  0  0  0  0  0  0  0  0  0  0
   -4.3480    2.3746   15.2126 C   0  0  0  0  0  0  0  0  0  0  0  0
   -3.2460    2.5435   14.3088 O   0  0  0  0  0  0  0  0  0  0  0  0
   -6.2353    3.5417   16.3650 C   0  0  0  0  0  0  0  0  0  0  0  0
   -0.3587   -0.1068   16.2222 N   0  0  0  0  0  0  0  0  0  0  0  0
    1.0372   -0.1275   15.7104 C   0  0  0  0  0  0  0  0  0  0  0  0
    1.9871   -0.5984   16.8157 C   0  0  0  0  0  0  0  0  0  0  0  0
    3.3613   -0.1395   16.5128 N   0  0  0  0  0  0  0  0  0  0  0  0
    4.3408   -1.0399   17.1864 C   0  0  0  0  0  0  0  0  0  0  0  0
    3.5304    1.2624   16.9894 C   0  0  0  0  0  0  0  0  0  0  0  0
    5.7694   -0.5640   16.8772 C   0  0  0  0  0  0  0  0  0  0  0  0
    4.9619    1.7388   16.6836 C   0  0  0  0  0  0  0  0  0  0  0  0
    5.9396    0.8376   17.3547 N   0  0  0  0  0  0  0  0  0  0  0  0
   -0.8273    4.9426   15.9293 C   0  0  0  0  0  0  0  0  0  0  0  0
    4.7073    6.0614   19.0484 N   0  0  0  0  0  0  0  0  0  0  0  0
    0.1563    4.0535   16.4247 C   0  0  0  0  0  0  0  0  0  0  0  0
    0.0205    2.6561   16.2090 C   0  0  0  0  0  0  0  0  0  0  0  0
   -1.0988    2.1477   15.4945 C   0  0  0  0  0  0  0  0  0  0  0  0
   -2.0978    3.0446   15.0100 C   0  0  0  0  0  0  0  0  0  0  0  0
   -1.9549    4.4426   15.2261 C   0  0  0  0  0  0  0  0  0  0  0  0
    5.6565    5.6683   18.0777 C   0  0  0  0  0  0  0  0  0  0  0  0
    5.0329    4.9860   17.0085 C   0  0  0  0  0  0  0  0  0  0  0  0
    2.5668    4.4271   16.5958 C   0  0  0  0  0  0  0  0  0  0  0  0
    1.2563    4.5620   17.1295 C   0  0  0  0  0  0  0  0  0  0  0  0
    1.0626    5.2195   18.3755 C   0  0  0  0  0  0  0  0  0  0  0  0
    2.1775    5.7427   19.0846 C   0  0  0  0  0  0  0  0  0  0  0  0
    3.4932    5.6176   18.5383 C   0  0  0  0  0  0  0  0  0  0  0  0
    3.6869    4.9670   17.3060 C   0  0  0  0  0  0  0  0  0  0  0  0
    4.8680    6.5447   19.8866 H   0  0  0  0  0  0  0  0  0  0  0  0
   -7.4007    5.0163   15.5066 H   0  0  0  0  0  0  0  0  0  0  0  0
   -7.7674    4.7055   17.1176 H   0  0  0  0  0  0  0  0  0  0  0  0
   -0.7037   -1.0721   16.3262 H   0  0  0  0  0  0  0  0  0  0  0  0
    6.8963    1.1544   17.1415 H   0  0  0  0  0  0  0  0  0  0  0  0
  1  6  1  0
  1 32  1  0
  1 33  1  0
  2  4  1  0
  2  6  1  0
  3  7  1  0
  3 20  1  0
  4  5  1  0
  5 21  1  0
  7  8  1  0
  7 34  1  0
  8  9  1  0
  9 10  1  0
 10 11  1  0
 10 12  1  0
 11 13  1  0
 12 14  1  0
 13 15  1  0
 14 15  1  0
 15 35  1  0
 16 18  2  0
 16 22  1  0
 17 23  1  0
 17 29  1  0
 17 31  1  0
 18 19  1  0
 18 26  1  0
 19 20  2  0
 20 21  1  0
 21 22  2  0
 23 24  2  0
 24 30  1  0
 25 26  2  0
 25 30  1  0
 26 27  1  0
 27 28  2  0
 28 29  1  0
 29 30  2  0
M  END
>  <CHROM.0>  (61) 
-37.99600936,-89.65856524,-62.62259676

>  <CHROM.1>  (61) 
64.22230725,178.74974516,-172.81263971,-81.38977705,18.04014887,81.61304539
95.22916081,167.34440038,-158.40899616,-155.36557950,-115.31989342,0.83547794
2.80726982,16.60497796,-3.09641764,0.21757299,-2.87452691

>  <Name>  (61) 
1uts_h

>  <RI>  (61) 
3.0543e+07

>  <Rbt.Current_Directory>  (61) 
/home/jta30/NA_complexes/1uts

>  <Rbt.Executable>  (61) 
rbdock ($Id: //depot/dev/client3/rdock/2013.1/src/exe/rbdock.cxx#4 $)

>  <Rbt.Library>  (61) 
libRbt.so (2013.1, Build901 2013/11/27)

>  <Rbt.Parameter_File>  (61) 
/software/dev_tools/swtree/cs400_centos7.2_pe2016-08/rdock/2013.1/centos7.2_conda/build/data/scripts/dock.prm

>  <Rbt.Receptor>  (61) 
1uts.prm

>  <SCORE>  (61) 
-6.19751

>  <SCORE.INTER>  (61) 
-8.5781

>  <SCORE.INTER.CONST>  (61) 
1

>  <SCORE.INTER.POLAR>  (61) 
-1.35935

>  <SCORE.INTER.REPUL>  (61) 
0

>  <SCORE.INTER.ROT>  (61) 
11

>  <SCORE.INTER.VDW>  (61) 
-20.3563

>  <SCORE.INTER.norm>  (61) 
-0.285937

>  <SCORE.INTRA>  (61) 
-3.39028

>  <SCORE.INTRA.DIHEDRAL>  (61) 
-2.94874

>  <SCORE.INTRA.DIHEDRAL.0>  (61) 
14.7121

>  <SCORE.INTRA.POLAR>  (61) 
0

>  <SCORE.INTRA.POLAR.0>  (61) 
0

>  <SCORE.INTRA.REPUL>  (61) 
0

>  <SCORE.INTRA.REPUL.0>  (61) 
0

>  <SCORE.INTRA.VDW>  (61) 
-1.91591

>  <SCORE.INTRA.VDW.0>  (61) 
-0.649219

>  <SCORE.INTRA.norm>  (61) 
-0.113009

>  <SCORE.RESTR>  (61) 
0

>  <SCORE.RESTR.CAVITY>  (61) 
0

>  <SCORE.RESTR.norm>  (61) 
0

>  <SCORE.SYSTEM>  (61) 
5.77087

>  <SCORE.SYSTEM.CONST>  (61) 
0

>  <SCORE.SYSTEM.DIHEDRAL>  (61) 
5.84148

>  <SCORE.SYSTEM.POLAR>  (61) 
-1.00198

>  <SCORE.SYSTEM.REPUL>  (61) 
0.905972

>  <SCORE.SYSTEM.VDW>  (61) 
1.72702

>  <SCORE.SYSTEM.norm>  (61) 
0.192362

>  <SCORE.heavy>  (61) 
30

>  <SCORE.norm>  (61) 
-0.206584

>  <pdb_header>  (61) 
CRYST1    1.000    1.000    1.000  90.00  90.00  90.00 P 1           1

>  <Predicted_Rank>  (61) 
62.0

$$$$
1uts_h
     RDKit          3D

 35 38  0  0  0  0  0  0  0  0999 V2000
    0.3614   -4.2041   18.3772 N   0  0  0  0  0  0  0  0  0  0  0  0
    2.7262   -4.2070   17.7102 C   0  0  0  0  0  0  0  0  0  0  0  0
    3.4195   -0.2939   16.3854 C   0  0  0  0  0  0  0  0  0  0  0  0
    4.1510   -3.9320   18.1996 C   0  0  0  0  0  0  0  0  0  0  0  0
    4.5834   -2.6531   17.7123 O   0  0  0  0  0  0  0  0  0  0  0  0
    1.7269   -3.8219   18.8026 C   0  0  0  0  0  0  0  0  0  0  0  0
    2.0353   -0.4858   15.8962 N   0  0  0  0  0  0  0  0  0  0  0  0
    1.2234    0.7212   16.2042 C   0  0  0  0  0  0  0  0  0  0  0  0
   -0.0984    0.6670   15.4326 C   0  0  0  0  0  0  0  0  0  0  0  0
   -0.8535    1.9195   15.6603 N   0  0  0  0  0  0  0  0  0  0  0  0
   -2.2175    1.7859   15.0724 C   0  0  0  0  0  0  0  0  0  0  0  0
   -0.1250    3.0570   15.0308 C   0  0  0  0  0  0  0  0  0  0  0  0
   -3.0036    3.0866   15.3037 C   0  0  0  0  0  0  0  0  0  0  0  0
   -0.9132    4.3596   15.2585 C   0  0  0  0  0  0  0  0  0  0  0  0
   -2.2761    4.2245   14.6732 N   0  0  0  0  0  0  0  0  0  0  0  0
    3.5545   -0.6681   20.7508 C   0  0  0  0  0  0  0  0  0  0  0  0
    0.7879    4.6001   23.2876 N   0  0  0  0  0  0  0  0  0  0  0  0
    3.0029    0.4900   20.1526 C   0  0  0  0  0  0  0  0  0  0  0  0
    2.9627    0.6050   18.7374 C   0  0  0  0  0  0  0  0  0  0  0  0
    3.4719   -0.4408   17.9196 C   0  0  0  0  0  0  0  0  0  0  0  0
    4.0425   -1.6005   18.5250 C   0  0  0  0  0  0  0  0  0  0  0  0
    4.0773   -1.7115   19.9421 C   0  0  0  0  0  0  0  0  0  0  0  0
   -0.3525    4.8359   22.4866 C   0  0  0  0  0  0  0  0  0  0  0  0
   -0.3568    3.9919   21.3529 C   0  0  0  0  0  0  0  0  0  0  0  0
    1.2980    2.1818   20.6120 C   0  0  0  0  0  0  0  0  0  0  0  0
    2.5041    1.5176   20.9654 C   0  0  0  0  0  0  0  0  0  0  0  0
    3.1995    1.8926   22.1479 C   0  0  0  0  0  0  0  0  0  0  0  0
    2.6879    2.9281   22.9758 C   0  0  0  0  0  0  0  0  0  0  0  0
    1.4670    3.5848   22.6249 C   0  0  0  0  0  0  0  0  0  0  0  0
    0.7780    3.2157   21.4551 C   0  0  0  0  0  0  0  0  0  0  0  0
    1.0383    5.0456   24.1248 H   0  0  0  0  0  0  0  0  0  0  0  0
    0.1224   -3.7106   17.5054 H   0  0  0  0  0  0  0  0  0  0  0  0
    0.3241   -5.2207   18.2164 H   0  0  0  0  0  0  0  0  0  0  0  0
    1.6201   -1.3089   16.3564 H   0  0  0  0  0  0  0  0  0  0  0  0
   -2.8034    5.0946   14.8343 H   0  0  0  0  0  0  0  0  0  0  0  0
  1  6  1  0
  1 32  1  0
  1 33  1  0
  2  4  1  0
  2  6  1  0
  3  7  1  0
  3 20  1  0
  4  5  1  0
  5 21  1  0
  7  8  1  0
  7 34  1  0
  8  9  1  0
  9 10  1  0
 10 11  1  0
 10 12  1  0
 11 13  1  0
 12 14  1  0
 13 15  1  0
 14 15  1  0
 15 35  1  0
 16 18  2  0
 16 22  1  0
 17 23  1  0
 17 29  1  0
 17 31  1  0
 18 19  1  0
 18 26  1  0
 19 20  2  0
 20 21  1  0
 21 22  2  0
 23 24  2  0
 24 30  1  0
 25 26  2  0
 25 30  1  0
 26 27  1  0
 27 28  2  0
 28 29  1  0
 29 30  2  0
M  END
>  <CHROM.0>  (62) 
-175.52581736,68.72351358,-61.55717054

>  <CHROM.1>  (62) 
-60.10918505,-96.71685089,-174.81273663,75.06259978,-74.37814939,80.02235768
-134.98499281,167.19349538,-175.57633283,-171.93494450,-139.32875171,1.40035979
0.78174555,18.49638736,0.47902862,0.91313917,-2.23347064

>  <Name>  (62) 
1uts_h

>  <RI>  (62) 
3.0543e+07

>  <Rbt.Current_Directory>  (62) 
/home/jta30/NA_complexes/1uts

>  <Rbt.Executable>  (62) 
rbdock ($Id: //depot/dev/client3/rdock/2013.1/src/exe/rbdock.cxx#4 $)

>  <Rbt.Library>  (62) 
libRbt.so (2013.1, Build901 2013/11/27)

>  <Rbt.Parameter_File>  (62) 
/software/dev_tools/swtree/cs400_centos7.2_pe2016-08/rdock/2013.1/centos7.2_conda/build/data/scripts/dock.prm

>  <Rbt.Receptor>  (62) 
1uts.prm

>  <SCORE>  (62) 
-0.0468097

>  <SCORE.INTER>  (62) 
-0.682133

>  <SCORE.INTER.CONST>  (62) 
1

>  <SCORE.INTER.POLAR>  (62) 
-1.16179

>  <SCORE.INTER.REPUL>  (62) 
0.002006

>  <SCORE.INTER.ROT>  (62) 
11

>  <SCORE.INTER.VDW>  (62) 
-13.1421

>  <SCORE.INTER.norm>  (62) 
-0.0227378

>  <SCORE.INTRA>  (62) 
-0.608919

>  <SCORE.INTRA.DIHEDRAL>  (62) 
-2.2217

>  <SCORE.INTRA.DIHEDRAL.0>  (62) 
14.7121

>  <SCORE.INTRA.POLAR>  (62) 
0

>  <SCORE.INTRA.POLAR.0>  (62) 
0

>  <SCORE.INTRA.REPUL>  (62) 
0

>  <SCORE.INTRA.REPUL.0>  (62) 
0

>  <SCORE.INTRA.VDW>  (62) 
0.501931

>  <SCORE.INTRA.VDW.0>  (62) 
-0.649219

>  <SCORE.INTRA.norm>  (62) 
-0.0202973

>  <SCORE.RESTR>  (62) 
0.0125941

>  <SCORE.RESTR.CAVITY>  (62) 
0.0125941

>  <SCORE.RESTR.norm>  (62) 
0.000419802

>  <SCORE.SYSTEM>  (62) 
1.23165

>  <SCORE.SYSTEM.CONST>  (62) 
0

>  <SCORE.SYSTEM.DIHEDRAL>  (62) 
0.714512

>  <SCORE.SYSTEM.POLAR>  (62) 
-0.245074

>  <SCORE.SYSTEM.REPUL>  (62) 
0.452492

>  <SCORE.SYSTEM.VDW>  (62) 
-0.554817

>  <SCORE.SYSTEM.norm>  (62) 
0.0410549

>  <SCORE.heavy>  (62) 
30

>  <SCORE.norm>  (62) 
-0.00156032

>  <pdb_header>  (62) 
CRYST1    1.000    1.000    1.000  90.00  90.00  90.00 P 1           1

>  <Predicted_Rank>  (62) 
63.0

$$$$
1uts_h
     RDKit          3D

 35 38  0  0  0  0  0  0  0  0999 V2000
    4.4281    0.3494   20.9176 N   0  0  0  0  0  0  0  0  0  0  0  0
    3.5282    0.9916   18.7233 C   0  0  0  0  0  0  0  0  0  0  0  0
    0.5268   -0.6395   15.7540 C   0  0  0  0  0  0  0  0  0  0  0  0
    2.2789    1.5081   18.0038 C   0  0  0  0  0  0  0  0  0  0  0  0
    2.4724    1.4112   16.5850 O   0  0  0  0  0  0  0  0  0  0  0  0
    3.2914    1.0072   20.2345 C   0  0  0  0  0  0  0  0  0  0  0  0
   -0.0615   -1.0014   17.0635 N   0  0  0  0  0  0  0  0  0  0  0  0
    1.0058   -1.4976   17.9722 C   0  0  0  0  0  0  0  0  0  0  0  0
    1.5193   -2.8526   17.4766 C   0  0  0  0  0  0  0  0  0  0  0  0
    2.6141   -3.3168   18.3580 N   0  0  0  0  0  0  0  0  0  0  0  0
    3.8569   -2.5556   18.0419 C   0  0  0  0  0  0  0  0  0  0  0  0
    2.8310   -4.7764   18.1496 C   0  0  0  0  0  0  0  0  0  0  0  0
    4.9975   -3.0379   18.9529 C   0  0  0  0  0  0  0  0  0  0  0  0
    3.9754   -5.2597   19.0587 C   0  0  0  0  0  0  0  0  0  0  0  0
    5.2157   -4.4974   18.7441 N   0  0  0  0  0  0  0  0  0  0  0  0
   -0.0934    3.6187   14.9190 C   0  0  0  0  0  0  0  0  0  0  0  0
   -5.4866    4.3261   11.4664 N   0  0  0  0  0  0  0  0  0  0  0  0
   -1.0438    2.6631   14.4868 C   0  0  0  0  0  0  0  0  0  0  0  0
   -0.8364    1.2848   14.7603 C   0  0  0  0  0  0  0  0  0  0  0  0
    0.3213    0.8621   15.4695 C   0  0  0  0  0  0  0  0  0  0  0  0
    1.2864    1.8258   15.8901 C   0  0  0  0  0  0  0  0  0  0  0  0
    1.0720    3.2044   15.6163 C   0  0  0  0  0  0  0  0  0  0  0  0
   -4.8236    4.4295   10.2224 C   0  0  0  0  0  0  0  0  0  0  0  0
   -3.4533    4.1081   10.3520 C   0  0  0  0  0  0  0  0  0  0  0  0
   -2.0956    3.3767   12.3978 C   0  0  0  0  0  0  0  0  0  0  0  0
   -2.1820    3.0872   13.7868 C   0  0  0  0  0  0  0  0  0  0  0  0
   -3.4258    3.2218   14.4629 C   0  0  0  0  0  0  0  0  0  0  0  0
   -4.5809    3.6429   13.7502 C   0  0  0  0  0  0  0  0  0  0  0  0
   -4.4938    3.9201   12.3499 C   0  0  0  0  0  0  0  0  0  0  0  0
   -3.2640    3.7881   11.6795 C   0  0  0  0  0  0  0  0  0  0  0  0
   -6.4333    4.4943   11.6600 H   0  0  0  0  0  0  0  0  0  0  0  0
    4.2983    0.4109   21.9374 H   0  0  0  0  0  0  0  0  0  0  0  0
    4.4707   -0.6406   20.6370 H   0  0  0  0  0  0  0  0  0  0  0  0
   -0.7710   -1.7364   16.9291 H   0  0  0  0  0  0  0  0  0  0  0  0
    5.9772   -4.8175   19.3595 H   0  0  0  0  0  0  0  0  0  0  0  0
  1  6  1  0
  1 32  1  0
  1 33  1  0
  2  4  1  0
  2  6  1  0
  3  7  1  0
  3 20  1  0
  4  5  1  0
  5 21  1  0
  7  8  1  0
  7 34  1  0
  8  9  1  0
  9 10  1  0
 10 11  1  0
 10 12  1  0
 11 13  1  0
 12 14  1  0
 13 15  1  0
 14 15  1  0
 15 35  1  0
 16 18  2  0
 16 22  1  0
 17 23  1  0
 17 29  1  0
 17 31  1  0
 18 19  1  0
 18 26  1  0
 19 20  2  0
 20 21  1  0
 21 22  2  0
 23 24  2  0
 24 30  1  0
 25 26  2  0
 25 30  1  0
 26 27  1  0
 27 28  2  0
 28 29  1  0
 29 30  2  0
M  END
>  <CHROM.0>  (63) 
57.32358784,65.77729465,-53.27100485

>  <CHROM.1>  (63) 
176.52165167,-176.31656467,172.85177429,-118.12195833,-91.38068255,177.03099539
-94.94724707,-69.02928055,177.98940066,-76.12533837,80.31205263,0.49961657
0.59854060,16.04706916,-0.53267914,-0.76238703,0.06302527

>  <Name>  (63) 
1uts_h

>  <RI>  (63) 
3.0543e+07

>  <Rbt.Current_Directory>  (63) 
/home/jta30/NA_complexes/1uts

>  <Rbt.Executable>  (63) 
rbdock ($Id: //depot/dev/client3/rdock/2013.1/src/exe/rbdock.cxx#4 $)

>  <Rbt.Library>  (63) 
libRbt.so (2013.1, Build901 2013/11/27)

>  <Rbt.Parameter_File>  (63) 
/software/dev_tools/swtree/cs400_centos7.2_pe2016-08/rdock/2013.1/centos7.2_conda/build/data/scripts/dock.prm

>  <Rbt.Receptor>  (63) 
1uts.prm

>  <SCORE>  (63) 
-11.6868

>  <SCORE.INTER>  (63) 
-8.99203

>  <SCORE.INTER.CONST>  (63) 
1

>  <SCORE.INTER.POLAR>  (63) 
-0.841877

>  <SCORE.INTER.REPUL>  (63) 
0

>  <SCORE.INTER.ROT>  (63) 
11

>  <SCORE.INTER.VDW>  (63) 
-22.5296

>  <SCORE.INTER.norm>  (63) 
-0.299734

>  <SCORE.INTRA>  (63) 
-4.04566

>  <SCORE.INTRA.DIHEDRAL>  (63) 
-5.30915

>  <SCORE.INTRA.DIHEDRAL.0>  (63) 
14.7121

>  <SCORE.INTRA.POLAR>  (63) 
0

>  <SCORE.INTRA.POLAR.0>  (63) 
0

>  <SCORE.INTRA.REPUL>  (63) 
0

>  <SCORE.INTRA.REPUL.0>  (63) 
0

>  <SCORE.INTRA.VDW>  (63) 
-1.39109

>  <SCORE.INTRA.VDW.0>  (63) 
-0.649219

>  <SCORE.INTRA.norm>  (63) 
-0.134855

>  <SCORE.RESTR>  (63) 
0

>  <SCORE.RESTR.CAVITY>  (63) 
0

>  <SCORE.RESTR.norm>  (63) 
0

>  <SCORE.SYSTEM>  (63) 
1.35089

>  <SCORE.SYSTEM.CONST>  (63) 
0

>  <SCORE.SYSTEM.DIHEDRAL>  (63) 
0.653902

>  <SCORE.SYSTEM.POLAR>  (63) 
-0.0921689

>  <SCORE.SYSTEM.REPUL>  (63) 
0.454776

>  <SCORE.SYSTEM.VDW>  (63) 
-0.936566

>  <SCORE.SYSTEM.norm>  (63) 
0.0450297

>  <SCORE.heavy>  (63) 
30

>  <SCORE.norm>  (63) 
-0.38956

>  <pdb_header>  (63) 
CRYST1    1.000    1.000    1.000  90.00  90.00  90.00 P 1           1

>  <Predicted_Rank>  (63) 
64.0

$$$$
1uts_h
     RDKit          3D

 35 38  0  0  0  0  0  0  0  0999 V2000
   -0.0938    4.8889   18.9535 N   0  0  0  0  0  0  0  0  0  0  0  0
    1.5201    4.4250   17.1598 C   0  0  0  0  0  0  0  0  0  0  0  0
   -0.3440    1.5116   16.7140 C   0  0  0  0  0  0  0  0  0  0  0  0
    1.7555    4.5167   15.6494 C   0  0  0  0  0  0  0  0  0  0  0  0
    1.1679    3.3763   15.0058 O   0  0  0  0  0  0  0  0  0  0  0  0
    0.1691    5.0535   17.5060 C   0  0  0  0  0  0  0  0  0  0  0  0
    0.8851    1.0215   16.0498 N   0  0  0  0  0  0  0  0  0  0  0  0
    1.8292    0.4934   17.0700 C   0  0  0  0  0  0  0  0  0  0  0  0
    3.1559    0.1187   16.4031 C   0  0  0  0  0  0  0  0  0  0  0  0
    4.1276   -0.2980   17.4390 N   0  0  0  0  0  0  0  0  0  0  0  0
    4.6871    0.9134   18.1049 C   0  0  0  0  0  0  0  0  0  0  0  0
    5.2170   -1.0921   16.8038 C   0  0  0  0  0  0  0  0  0  0  0  0
    5.6998    0.4847   19.1791 C   0  0  0  0  0  0  0  0  0  0  0  0
    6.2337   -1.5188   17.8779 C   0  0  0  0  0  0  0  0  0  0  0  0
    6.7902   -0.3086   18.5442 N   0  0  0  0  0  0  0  0  0  0  0  0
   -2.3406    4.5427   14.2563 C   0  0  0  0  0  0  0  0  0  0  0  0
   -8.7180    3.8924   14.8053 N   0  0  0  0  0  0  0  0  0  0  0  0
   -3.1045    3.6537   15.0497 C   0  0  0  0  0  0  0  0  0  0  0  0
   -2.4512    2.6736   15.8434 C   0  0  0  0  0  0  0  0  0  0  0  0
   -1.0321    2.5844   15.8460 C   0  0  0  0  0  0  0  0  0  0  0  0
   -0.2644    3.4711   15.0327 C   0  0  0  0  0  0  0  0  0  0  0  0
   -0.9237    4.4523   14.2426 C   0  0  0  0  0  0  0  0  0  0  0  0
   -8.8569    3.3987   13.4881 C   0  0  0  0  0  0  0  0  0  0  0  0
   -7.5938    3.1308   12.9132 C   0  0  0  0  0  0  0  0  0  0  0  0
   -5.2337    3.3701   13.8809 C   0  0  0  0  0  0  0  0  0  0  0  0
   -4.5034    3.7467   15.0408 C   0  0  0  0  0  0  0  0  0  0  0  0
   -5.1943    4.2111   16.1937 C   0  0  0  0  0  0  0  0  0  0  0  0
   -6.6129    4.2962   16.1867 C   0  0  0  0  0  0  0  0  0  0  0  0
   -7.3455    3.9033   15.0231 C   0  0  0  0  0  0  0  0  0  0  0  0
   -6.6636    3.4442   13.8813 C   0  0  0  0  0  0  0  0  0  0  0  0
   -9.4287    4.1583   15.4267 H   0  0  0  0  0  0  0  0  0  0  0  0
   -0.1114    3.8861   19.1876 H   0  0  0  0  0  0  0  0  0  0  0  0
    0.6510    5.3532   19.4925 H   0  0  0  0  0  0  0  0  0  0  0  0
    1.3290    1.7963   15.5357 H   0  0  0  0  0  0  0  0  0  0  0  0
    7.4640   -0.5979   19.2676 H   0  0  0  0  0  0  0  0  0  0  0  0
  1  6  1  0
  1 32  1  0
  1 33  1  0
  2  4  1  0
  2  6  1  0
  3  7  1  0
  3 20  1  0
  4  5  1  0
  5 21  1  0
  7  8  1  0
  7 34  1  0
  8  9  1  0
  9 10  1  0
 10 11  1  0
 10 12  1  0
 11 13  1  0
 12 14  1  0
 13 15  1  0
 14 15  1  0
 15 35  1  0
 16 18  2  0
 16 22  1  0
 17 23  1  0
 17 29  1  0
 17 31  1  0
 18 19  1  0
 18 26  1  0
 19 20  2  0
 20 21  1  0
 21 22  2  0
 23 24  2  0
 24 30  1  0
 25 26  2  0
 25 30  1  0
 26 27  1  0
 27 28  2  0
 28 29  1  0
 29 30  2  0
M  END
>  <CHROM.0>  (64) 
61.14686208,70.58265143,53.06764018

>  <CHROM.1>  (64) 
-60.01196893,-87.12286427,176.52105076,154.90707223,146.04951564,71.32760285
-110.43714490,-174.24767667,175.26598911,-78.45705384,69.77220884,-0.66560265
2.54753856,16.10873370,-0.21601083,-0.33500010,0.25085769

>  <Name>  (64) 
1uts_h

>  <RI>  (64) 
3.0543e+07

>  <Rbt.Current_Directory>  (64) 
/home/jta30/NA_complexes/1uts

>  <Rbt.Executable>  (64) 
rbdock ($Id: //depot/dev/client3/rdock/2013.1/src/exe/rbdock.cxx#4 $)

>  <Rbt.Library>  (64) 
libRbt.so (2013.1, Build901 2013/11/27)

>  <Rbt.Parameter_File>  (64) 
/software/dev_tools/swtree/cs400_centos7.2_pe2016-08/rdock/2013.1/centos7.2_conda/build/data/scripts/dock.prm

>  <Rbt.Receptor>  (64) 
1uts.prm

>  <SCORE>  (64) 
-12.0413

>  <SCORE.INTER>  (64) 
-9.29838

>  <SCORE.INTER.CONST>  (64) 
1

>  <SCORE.INTER.POLAR>  (64) 
0

>  <SCORE.INTER.REPUL>  (64) 
0

>  <SCORE.INTER.ROT>  (64) 
11

>  <SCORE.INTER.VDW>  (64) 
-25.6984

>  <SCORE.INTER.norm>  (64) 
-0.309946

>  <SCORE.INTRA>  (64) 
-5.86901

>  <SCORE.INTRA.DIHEDRAL>  (64) 
-3.99111

>  <SCORE.INTRA.DIHEDRAL.0>  (64) 
14.7121

>  <SCORE.INTRA.POLAR>  (64) 
-0.913981

>  <SCORE.INTRA.POLAR.0>  (64) 
0

>  <SCORE.INTRA.REPUL>  (64) 
0

>  <SCORE.INTRA.REPUL.0>  (64) 
0

>  <SCORE.INTRA.VDW>  (64) 
-0.76592

>  <SCORE.INTRA.VDW.0>  (64) 
-0.649219

>  <SCORE.INTRA.norm>  (64) 
-0.195634

>  <SCORE.RESTR>  (64) 
0

>  <SCORE.RESTR.CAVITY>  (64) 
0

>  <SCORE.RESTR.norm>  (64) 
0

>  <SCORE.SYSTEM>  (64) 
3.12606

>  <SCORE.SYSTEM.CONST>  (64) 
0

>  <SCORE.SYSTEM.DIHEDRAL>  (64) 
1.00636

>  <SCORE.SYSTEM.POLAR>  (64) 
-0.142755

>  <SCORE.SYSTEM.REPUL>  (64) 
0.793505

>  <SCORE.SYSTEM.VDW>  (64) 
-0.859275

>  <SCORE.SYSTEM.norm>  (64) 
0.104202

>  <SCORE.heavy>  (64) 
30

>  <SCORE.norm>  (64) 
-0.401377

>  <pdb_header>  (64) 
CRYST1    1.000    1.000    1.000  90.00  90.00  90.00 P 1           1

>  <Predicted_Rank>  (64) 
65.0

$$$$
1uts_h
     RDKit          3D

 35 38  0  0  0  0  0  0  0  0999 V2000
    6.4623   -0.8200   15.8606 N   0  0  0  0  0  0  0  0  0  0  0  0
    4.7012   -0.1802   17.4501 C   0  0  0  0  0  0  0  0  0  0  0  0
    2.7237    4.1181   16.3032 C   0  0  0  0  0  0  0  0  0  0  0  0
    3.6078    0.3519   16.5192 C   0  0  0  0  0  0  0  0  0  0  0  0
    2.8142    1.3199   17.2214 O   0  0  0  0  0  0  0  0  0  0  0  0
    5.4244   -1.3471   16.7751 C   0  0  0  0  0  0  0  0  0  0  0  0
    2.7315    4.3763   17.7610 N   0  0  0  0  0  0  0  0  0  0  0  0
    1.5661    5.2248   18.1256 C   0  0  0  0  0  0  0  0  0  0  0  0
    1.6735    5.6493   19.5932 C   0  0  0  0  0  0  0  0  0  0  0  0
    3.0561    6.0954   19.8769 N   0  0  0  0  0  0  0  0  0  0  0  0
    3.5332    5.4507   21.1341 C   0  0  0  0  0  0  0  0  0  0  0  0
    3.0784    7.5793   20.0126 C   0  0  0  0  0  0  0  0  0  0  0  0
    4.9677    5.9147   21.4342 C   0  0  0  0  0  0  0  0  0  0  0  0
    4.5138    8.0449   20.3168 C   0  0  0  0  0  0  0  0  0  0  0  0
    4.9905    7.3987   21.5712 N   0  0  0  0  0  0  0  0  0  0  0  0
   -0.4125    1.2356   15.2688 C   0  0  0  0  0  0  0  0  0  0  0  0
   -4.7769    4.1526   11.5255 N   0  0  0  0  0  0  0  0  0  0  0  0
   -0.5025    2.5757   14.8225 C   0  0  0  0  0  0  0  0  0  0  0  0
    0.5170    3.5047   15.1617 C   0  0  0  0  0  0  0  0  0  0  0  0
    1.6293    3.0922   15.9455 C   0  0  0  0  0  0  0  0  0  0  0  0
    1.7099    1.7444   16.4082 C   0  0  0  0  0  0  0  0  0  0  0  0
    0.6879    0.8181   16.0630 C   0  0  0  0  0  0  0  0  0  0  0  0
   -4.0290    4.3212   10.3381 C   0  0  0  0  0  0  0  0  0  0  0  0
   -2.6596    4.0513   10.5610 C   0  0  0  0  0  0  0  0  0  0  0  0
   -1.4267    3.3115   12.6815 C   0  0  0  0  0  0  0  0  0  0  0  0
   -1.6030    2.9755   14.0514 C   0  0  0  0  0  0  0  0  0  0  0  0
   -2.8978    3.0389   14.6358 C   0  0  0  0  0  0  0  0  0  0  0  0
   -4.0140    3.4353   13.8506 C   0  0  0  0  0  0  0  0  0  0  0  0
   -3.8357    3.7593   12.4692 C   0  0  0  0  0  0  0  0  0  0  0  0
   -2.5553    3.6978   11.8894 C   0  0  0  0  0  0  0  0  0  0  0  0
   -5.7416    4.2765   11.6522 H   0  0  0  0  0  0  0  0  0  0  0  0
    7.3918   -0.9495   16.2847 H   0  0  0  0  0  0  0  0  0  0  0  0
    6.4208   -1.3276   14.9654 H   0  0  0  0  0  0  0  0  0  0  0  0
    3.6048    4.8584   18.0190 H   0  0  0  0  0  0  0  0  0  0  0  0
    5.9539    7.7061   21.7674 H   0  0  0  0  0  0  0  0  0  0  0  0
  1  6  1  0
  1 32  1  0
  1 33  1  0
  2  4  1  0
  2  6  1  0
  3  7  1  0
  3 20  1  0
  4  5  1  0
  5 21  1  0
  7  8  1  0
  7 34  1  0
  8  9  1  0
  9 10  1  0
 10 11  1  0
 10 12  1  0
 11 13  1  0
 12 14  1  0
 13 15  1  0
 14 15  1  0
 15 35  1  0
 16 18  2  0
 16 22  1  0
 17 23  1  0
 17 29  1  0
 17 31  1  0
 18 19  1  0
 18 26  1  0
 19 20  2  0
 20 21  1  0
 21 22  2  0
 23 24  2  0
 24 30  1  0
 25 26  2  0
 25 30  1  0
 26 27  1  0
 27 28  2  0
 28 29  1  0
 29 30  2  0
M  END
>  <CHROM.0>  (65) 
-54.05584395,76.51487353,-53.37303566

>  <CHROM.1>  (65) 
104.99637188,172.17806825,82.90514449,-74.42349470,113.48582101,-174.84311369
-114.35790761,-172.42498767,45.17625280,-132.42954650,-111.25322730,1.26778469
3.51534403,16.36072419,-0.53085845,0.63241665,-2.55930025

>  <Name>  (65) 
1uts_h

>  <RI>  (65) 
3.0543e+07

>  <Rbt.Current_Directory>  (65) 
/home/jta30/NA_complexes/1uts

>  <Rbt.Executable>  (65) 
rbdock ($Id: //depot/dev/client3/rdock/2013.1/src/exe/rbdock.cxx#4 $)

>  <Rbt.Library>  (65) 
libRbt.so (2013.1, Build901 2013/11/27)

>  <Rbt.Parameter_File>  (65) 
/software/dev_tools/swtree/cs400_centos7.2_pe2016-08/rdock/2013.1/centos7.2_conda/build/data/scripts/dock.prm

>  <Rbt.Receptor>  (65) 
1uts.prm

>  <SCORE>  (65) 
-7.29186

>  <SCORE.INTER>  (65) 
-10.2717

>  <SCORE.INTER.CONST>  (65) 
1

>  <SCORE.INTER.POLAR>  (65) 
-0.647259

>  <SCORE.INTER.REPUL>  (65) 
0.0115652

>  <SCORE.INTER.ROT>  (65) 
11

>  <SCORE.INTER.VDW>  (65) 
-24.5289

>  <SCORE.INTER.norm>  (65) 
-0.342391

>  <SCORE.INTRA>  (65) 
-2.82949

>  <SCORE.INTRA.DIHEDRAL>  (65) 
-1.1258

>  <SCORE.INTRA.DIHEDRAL.0>  (65) 
14.7121

>  <SCORE.INTRA.POLAR>  (65) 
-0.0658847

>  <SCORE.INTRA.POLAR.0>  (65) 
0

>  <SCORE.INTRA.REPUL>  (65) 
0

>  <SCORE.INTRA.REPUL.0>  (65) 
0

>  <SCORE.INTRA.VDW>  (65) 
-2.04258

>  <SCORE.INTRA.VDW.0>  (65) 
-0.649219

>  <SCORE.INTRA.norm>  (65) 
-0.0943163

>  <SCORE.RESTR>  (65) 
0

>  <SCORE.RESTR.CAVITY>  (65) 
0

>  <SCORE.RESTR.norm>  (65) 
0

>  <SCORE.SYSTEM>  (65) 
5.80937

>  <SCORE.SYSTEM.CONST>  (65) 
0

>  <SCORE.SYSTEM.DIHEDRAL>  (65) 
1.86152

>  <SCORE.SYSTEM.POLAR>  (65) 
-0.104258

>  <SCORE.SYSTEM.REPUL>  (65) 
0.452079

>  <SCORE.SYSTEM.VDW>  (65) 
2.97269

>  <SCORE.SYSTEM.norm>  (65) 
0.193646

>  <SCORE.heavy>  (65) 
30

>  <SCORE.norm>  (65) 
-0.243062

>  <pdb_header>  (65) 
CRYST1    1.000    1.000    1.000  90.00  90.00  90.00 P 1           1

>  <Predicted_Rank>  (65) 
66.0

$$$$
1uts_h
     RDKit          3D

 35 38  0  0  0  0  0  0  0  0999 V2000
    3.3649    4.0805   20.5267 N   0  0  0  0  0  0  0  0  0  0  0  0
    3.1037    6.4475   19.9217 C   0  0  0  0  0  0  0  0  0  0  0  0
    2.6980    4.5492   15.6071 C   0  0  0  0  0  0  0  0  0  0  0  0
    1.9136    6.2392   18.9806 C   0  0  0  0  0  0  0  0  0  0  0  0
    1.9631    4.9117   18.4373 O   0  0  0  0  0  0  0  0  0  0  0  0
    3.0431    5.4244   21.0574 C   0  0  0  0  0  0  0  0  0  0  0  0
    3.4338    3.4096   16.2003 N   0  0  0  0  0  0  0  0  0  0  0  0
    4.8851    3.7276   16.2612 C   0  0  0  0  0  0  0  0  0  0  0  0
    5.5992    2.7175   17.1641 C   0  0  0  0  0  0  0  0  0  0  0  0
    5.2787    1.3436   16.7160 N   0  0  0  0  0  0  0  0  0  0  0  0
    4.0854    0.8486   17.4608 C   0  0  0  0  0  0  0  0  0  0  0  0
    6.4508    0.4571   16.9634 C   0  0  0  0  0  0  0  0  0  0  0  0
    3.7518   -0.5798   17.0007 C   0  0  0  0  0  0  0  0  0  0  0  0
    6.1166   -0.9743   16.5066 C   0  0  0  0  0  0  0  0  0  0  0  0
    4.9233   -1.4672   17.2491 N   0  0  0  0  0  0  0  0  0  0  0  0
   -1.4794    4.5581   16.9353 C   0  0  0  0  0  0  0  0  0  0  0  0
   -5.1607    3.7893   11.6490 N   0  0  0  0  0  0  0  0  0  0  0  0
   -1.1692    4.3989   15.5635 C   0  0  0  0  0  0  0  0  0  0  0  0
    0.1865    4.3974   15.1399 C   0  0  0  0  0  0  0  0  0  0  0  0
    1.2334    4.5522   16.0897 C   0  0  0  0  0  0  0  0  0  0  0  0
    0.9177    4.7290   17.4703 C   0  0  0  0  0  0  0  0  0  0  0  0
   -0.4411    4.7266   17.8890 C   0  0  0  0  0  0  0  0  0  0  0  0
   -4.3408    4.0326   10.5237 C   0  0  0  0  0  0  0  0  0  0  0  0
   -3.0132    4.3156   10.9177 C   0  0  0  0  0  0  0  0  0  0  0  0
   -1.9458    4.4098   13.2448 C   0  0  0  0  0  0  0  0  0  0  0  0
   -2.2067    4.2482   14.6327 C   0  0  0  0  0  0  0  0  0  0  0  0
   -3.5197    3.9268   15.0744 C   0  0  0  0  0  0  0  0  0  0  0  0
   -4.5685    3.7653   14.1292 C   0  0  0  0  0  0  0  0  0  0  0  0
   -4.2998    3.9148   12.7326 C   0  0  0  0  0  0  0  0  0  0  0  0
   -3.0016    4.2333   12.2938 C   0  0  0  0  0  0  0  0  0  0  0  0
   -6.1173    3.5728   11.6615 H   0  0  0  0  0  0  0  0  0  0  0  0
    3.1367    3.3679   21.2343 H   0  0  0  0  0  0  0  0  0  0  0  0
    2.8124    3.9065   19.6751 H   0  0  0  0  0  0  0  0  0  0  0  0
    3.2876    2.5691   15.6224 H   0  0  0  0  0  0  0  0  0  0  0  0
    4.6976   -2.4220   16.9353 H   0  0  0  0  0  0  0  0  0  0  0  0
  1  6  1  0
  1 32  1  0
  1 33  1  0
  2  4  1  0
  2  6  1  0
  3  7  1  0
  3 20  1  0
  4  5  1  0
  5 21  1  0
  7  8  1  0
  7 34  1  0
  8  9  1  0
  9 10  1  0
 10 11  1  0
 10 12  1  0
 11 13  1  0
 12 14  1  0
 13 15  1  0
 14 15  1  0
 15 35  1  0
 16 18  2  0
 16 22  1  0
 17 23  1  0
 17 29  1  0
 17 31  1  0
 18 19  1  0
 18 26  1  0
 19 20  2  0
 20 21  1  0
 21 22  2  0
 23 24  2  0
 24 30  1  0
 25 26  2  0
 25 30  1  0
 26 27  1  0
 27 28  2  0
 28 29  1  0
 29 30  2  0
M  END
>  <CHROM.0>  (66) 
-36.42172972,-87.80332485,-56.21767828

>  <CHROM.1>  (66) 
-168.33597934,-59.80923048,71.22808047,-154.47294144,-117.63831792,-175.41131802
112.72986796,166.52895738,52.94831468,-91.95738766,164.84170204,1.14451851
3.43898576,16.14455551,0.21624034,-0.54681442,0.80094940

>  <Name>  (66) 
1uts_h

>  <RI>  (66) 
3.0543e+07

>  <Rbt.Current_Directory>  (66) 
/home/jta30/NA_complexes/1uts

>  <Rbt.Executable>  (66) 
rbdock ($Id: //depot/dev/client3/rdock/2013.1/src/exe/rbdock.cxx#4 $)

>  <Rbt.Library>  (66) 
libRbt.so (2013.1, Build901 2013/11/27)

>  <Rbt.Parameter_File>  (66) 
/software/dev_tools/swtree/cs400_centos7.2_pe2016-08/rdock/2013.1/centos7.2_conda/build/data/scripts/dock.prm

>  <Rbt.Receptor>  (66) 
1uts.prm

>  <SCORE>  (66) 
-12.3347

>  <SCORE.INTER>  (66) 
-12.0084

>  <SCORE.INTER.CONST>  (66) 
1

>  <SCORE.INTER.POLAR>  (66) 
-0.387591

>  <SCORE.INTER.REPUL>  (66) 
0

>  <SCORE.INTER.ROT>  (66) 
11

>  <SCORE.INTER.VDW>  (66) 
-27.0906

>  <SCORE.INTER.norm>  (66) 
-0.400279

>  <SCORE.INTRA>  (66) 
-5.86395

>  <SCORE.INTRA.DIHEDRAL>  (66) 
-5.11125

>  <SCORE.INTRA.DIHEDRAL.0>  (66) 
14.7121

>  <SCORE.INTRA.POLAR>  (66) 
-0.728881

>  <SCORE.INTRA.POLAR.0>  (66) 
0

>  <SCORE.INTRA.REPUL>  (66) 
0

>  <SCORE.INTRA.REPUL.0>  (66) 
0

>  <SCORE.INTRA.VDW>  (66) 
-0.830132

>  <SCORE.INTRA.VDW.0>  (66) 
-0.649219

>  <SCORE.INTRA.norm>  (66) 
-0.195465

>  <SCORE.RESTR>  (66) 
0

>  <SCORE.RESTR.CAVITY>  (66) 
0

>  <SCORE.RESTR.norm>  (66) 
0

>  <SCORE.SYSTEM>  (66) 
5.53766

>  <SCORE.SYSTEM.CONST>  (66) 
0

>  <SCORE.SYSTEM.DIHEDRAL>  (66) 
5.80589

>  <SCORE.SYSTEM.POLAR>  (66) 
-1.04133

>  <SCORE.SYSTEM.REPUL>  (66) 
0.871626

>  <SCORE.SYSTEM.VDW>  (66) 
1.81713

>  <SCORE.SYSTEM.norm>  (66) 
0.184589

>  <SCORE.heavy>  (66) 
30

>  <SCORE.norm>  (66) 
-0.411155

>  <pdb_header>  (66) 
CRYST1    1.000    1.000    1.000  90.00  90.00  90.00 P 1           1

>  <Predicted_Rank>  (66) 
67.0

$$$$
1uts_h
     RDKit          3D

 35 38  0  0  0  0  0  0  0  0999 V2000
   -1.1379    6.1922   10.6928 N   0  0  0  0  0  0  0  0  0  0  0  0
   -2.6499    4.9169   12.1504 C   0  0  0  0  0  0  0  0  0  0  0  0
   -2.7030    2.1962   15.2510 C   0  0  0  0  0  0  0  0  0  0  0  0
   -1.5691    4.0409   12.7905 C   0  0  0  0  0  0  0  0  0  0  0  0
   -1.2910    4.5192   14.1148 O   0  0  0  0  0  0  0  0  0  0  0  0
   -2.0703    6.2977   11.8377 C   0  0  0  0  0  0  0  0  0  0  0  0
   -3.4230    3.4772   15.4320 N   0  0  0  0  0  0  0  0  0  0  0  0
   -4.6111    3.5146   14.5387 C   0  0  0  0  0  0  0  0  0  0  0  0
   -5.8766    3.2142   15.3472 C   0  0  0  0  0  0  0  0  0  0  0  0
   -7.0218    3.0449   14.4249 N   0  0  0  0  0  0  0  0  0  0  0  0
   -8.2620    3.5487   15.0822 C   0  0  0  0  0  0  0  0  0  0  0  0
   -7.1667    1.6032   14.0765 C   0  0  0  0  0  0  0  0  0  0  0  0
   -9.4545    3.3708   14.1285 C   0  0  0  0  0  0  0  0  0  0  0  0
   -8.3629    1.4234   13.1244 C   0  0  0  0  0  0  0  0  0  0  0  0
   -9.6007    1.9290   13.7806 N   0  0  0  0  0  0  0  0  0  0  0  0
    1.6155    2.7572   15.7516 C   0  0  0  0  0  0  0  0  0  0  0  0
    4.1775   -2.0442   19.1224 N   0  0  0  0  0  0  0  0  0  0  0  0
    0.9719    1.6365   16.3287 C   0  0  0  0  0  0  0  0  0  0  0  0
   -0.4279    1.4610   16.1631 C   0  0  0  0  0  0  0  0  0  0  0  0
   -1.1843    2.4058   15.4167 C   0  0  0  0  0  0  0  0  0  0  0  0
   -0.5360    3.5438   14.8494 C   0  0  0  0  0  0  0  0  0  0  0  0
    0.8659    3.7126   15.0159 C   0  0  0  0  0  0  0  0  0  0  0  0
    5.2022   -2.1532   18.1550 C   0  0  0  0  0  0  0  0  0  0  0  0
    4.9179   -1.3526   17.0254 C   0  0  0  0  0  0  0  0  0  0  0  0
    2.9397    0.1994   16.5336 C   0  0  0  0  0  0  0  0  0  0  0  0
    1.7240    0.7099   17.0645 C   0  0  0  0  0  0  0  0  0  0  0  0
    1.2760    0.2846   18.3454 C   0  0  0  0  0  0  0  0  0  0  0  0
    2.0440   -0.6476   19.0941 C   0  0  0  0  0  0  0  0  0  0  0  0
    3.2737   -1.1488   18.5632 C   0  0  0  0  0  0  0  0  0  0  0  0
    3.7182   -0.7296   17.2959 C   0  0  0  0  0  0  0  0  0  0  0  0
    4.1214   -2.4918   19.9933 H   0  0  0  0  0  0  0  0  0  0  0  0
   -1.3410    6.9399   10.0143 H   0  0  0  0  0  0  0  0  0  0  0  0
   -0.1692    6.2891   11.0290 H   0  0  0  0  0  0  0  0  0  0  0  0
   -2.7930    4.2598   15.2031 H   0  0  0  0  0  0  0  0  0  0  0  0
  -10.3975    1.8146   13.1380 H   0  0  0  0  0  0  0  0  0  0  0  0
  1  6  1  0
  1 32  1  0
  1 33  1  0
  2  4  1  0
  2  6  1  0
  3  7  1  0
  3 20  1  0
  4  5  1  0
  5 21  1  0
  7  8  1  0
  7 34  1  0
  8  9  1  0
  9 10  1  0
 10 11  1  0
 10 12  1  0
 11 13  1  0
 12 14  1  0
 13 15  1  0
 14 15  1  0
 15 35  1  0
 16 18  2  0
 16 22  1  0
 17 23  1  0
 17 29  1  0
 17 31  1  0
 18 19  1  0
 18 26  1  0
 19 20  2  0
 20 21  1  0
 21 22  2  0
 23 24  2  0
 24 30  1  0
 25 26  2  0
 25 30  1  0
 26 27  1  0
 27 28  2  0
 28 29  1  0
 29 30  2  0
M  END
>  <CHROM.0>  (67) 
173.42097184,69.17270869,51.84461294

>  <CHROM.1>  (67) 
132.82176241,70.51429019,72.10322094,145.88838866,137.11944896,166.02339782
-78.37265154,101.89955700,-171.26660318,-146.67193442,-48.04039137,-1.73218967
2.18445473,15.25600398,-2.64748750,0.05166511,2.43344770

>  <Name>  (67) 
1uts_h

>  <RI>  (67) 
3.0543e+07

>  <Rbt.Current_Directory>  (67) 
/home/jta30/NA_complexes/1uts

>  <Rbt.Executable>  (67) 
rbdock ($Id: //depot/dev/client3/rdock/2013.1/src/exe/rbdock.cxx#4 $)

>  <Rbt.Library>  (67) 
libRbt.so (2013.1, Build901 2013/11/27)

>  <Rbt.Parameter_File>  (67) 
/software/dev_tools/swtree/cs400_centos7.2_pe2016-08/rdock/2013.1/centos7.2_conda/build/data/scripts/dock.prm

>  <Rbt.Receptor>  (67) 
1uts.prm

>  <SCORE>  (67) 
-19.2417

>  <SCORE.INTER>  (67) 
-19.4125

>  <SCORE.INTER.CONST>  (67) 
1

>  <SCORE.INTER.POLAR>  (67) 
-2.84936

>  <SCORE.INTER.REPUL>  (67) 
0.00172297

>  <SCORE.INTER.ROT>  (67) 
11

>  <SCORE.INTER.VDW>  (67) 
-26.1333

>  <SCORE.INTER.norm>  (67) 
-0.647085

>  <SCORE.INTRA>  (67) 
-2.87696

>  <SCORE.INTRA.DIHEDRAL>  (67) 
0.446418

>  <SCORE.INTRA.DIHEDRAL.0>  (67) 
14.7121

>  <SCORE.INTRA.POLAR>  (67) 
-0.521626

>  <SCORE.INTRA.POLAR.0>  (67) 
0

>  <SCORE.INTRA.REPUL>  (67) 
0

>  <SCORE.INTRA.REPUL.0>  (67) 
0

>  <SCORE.INTRA.VDW>  (67) 
-1.32664

>  <SCORE.INTRA.VDW.0>  (67) 
-0.649219

>  <SCORE.INTRA.norm>  (67) 
-0.0958986

>  <SCORE.RESTR>  (67) 
0

>  <SCORE.RESTR.CAVITY>  (67) 
0

>  <SCORE.RESTR.norm>  (67) 
0

>  <SCORE.SYSTEM>  (67) 
3.04779

>  <SCORE.SYSTEM.CONST>  (67) 
0

>  <SCORE.SYSTEM.DIHEDRAL>  (67) 
1.16498

>  <SCORE.SYSTEM.POLAR>  (67) 
-0.178643

>  <SCORE.SYSTEM.REPUL>  (67) 
0.782191

>  <SCORE.SYSTEM.VDW>  (67) 
-0.838268

>  <SCORE.SYSTEM.norm>  (67) 
0.101593

>  <SCORE.heavy>  (67) 
30

>  <SCORE.norm>  (67) 
-0.64139

>  <pdb_header>  (67) 
CRYST1    1.000    1.000    1.000  90.00  90.00  90.00 P 1           1

>  <Predicted_Rank>  (67) 
68.0

$$$$
1uts_h
     RDKit          3D

 35 38  0  0  0  0  0  0  0  0999 V2000
    3.5668    6.5404   19.1030 N   0  0  0  0  0  0  0  0  0  0  0  0
    3.6381    4.1184   18.6957 C   0  0  0  0  0  0  0  0  0  0  0  0
    2.6352    0.6505   16.6609 C   0  0  0  0  0  0  0  0  0  0  0  0
    4.5592    4.1948   17.4747 C   0  0  0  0  0  0  0  0  0  0  0  0
    4.2750    3.0975   16.5944 O   0  0  0  0  0  0  0  0  0  0  0  0
    3.9900    5.2414   19.6730 C   0  0  0  0  0  0  0  0  0  0  0  0
    4.0953    0.5640   16.4312 N   0  0  0  0  0  0  0  0  0  0  0  0
    4.6311   -0.6661   17.0721 C   0  0  0  0  0  0  0  0  0  0  0  0
    4.6102   -0.5076   18.5952 C   0  0  0  0  0  0  0  0  0  0  0  0
    5.3131    0.7398   18.9704 N   0  0  0  0  0  0  0  0  0  0  0  0
    6.7857    0.5127   18.9090 C   0  0  0  0  0  0  0  0  0  0  0  0
    4.9057    1.1419   20.3464 C   0  0  0  0  0  0  0  0  0  0  0  0
    7.5192    1.8054   19.3018 C   0  0  0  0  0  0  0  0  0  0  0  0
    5.6425    2.4342   20.7423 C   0  0  0  0  0  0  0  0  0  0  0  0
    7.1131    2.2073   20.6784 N   0  0  0  0  0  0  0  0  0  0  0  0
    1.0490    4.4657   15.1969 C   0  0  0  0  0  0  0  0  0  0  0  0
   -4.9566    3.6220   13.0534 N   0  0  0  0  0  0  0  0  0  0  0  0
    0.2338    3.3087   15.1956 C   0  0  0  0  0  0  0  0  0  0  0  0
    0.7542    2.0755   15.6709 C   0  0  0  0  0  0  0  0  0  0  0  0
    2.0905    2.0001   16.1510 C   0  0  0  0  0  0  0  0  0  0  0  0
    2.9160    3.1643   16.1363 C   0  0  0  0  0  0  0  0  0  0  0  0
    2.3887    4.3967   15.6622 C   0  0  0  0  0  0  0  0  0  0  0  0
   -4.5782    3.8379   11.7088 C   0  0  0  0  0  0  0  0  0  0  0  0
   -3.1715    3.8900   11.5820 C   0  0  0  0  0  0  0  0  0  0  0  0
   -1.3254    3.6296   13.3394 C   0  0  0  0  0  0  0  0  0  0  0  0
   -1.0823    3.3904   14.7193 C   0  0  0  0  0  0  0  0  0  0  0  0
   -2.1756    3.2274   15.6138 C   0  0  0  0  0  0  0  0  0  0  0  0
   -3.5091    3.3013   15.1282 C   0  0  0  0  0  0  0  0  0  0  0  0
   -3.7503    3.5282   13.7370 C   0  0  0  0  0  0  0  0  0  0  0  0
   -2.6699    3.6903   12.8506 C   0  0  0  0  0  0  0  0  0  0  0  0
   -5.8636    3.5469   13.4191 H   0  0  0  0  0  0  0  0  0  0  0  0
    4.2245    6.8210   18.3619 H   0  0  0  0  0  0  0  0  0  0  0  0
    2.6214    6.4487   18.7048 H   0  0  0  0  0  0  0  0  0  0  0  0
    4.5554    1.3930   16.8346 H   0  0  0  0  0  0  0  0  0  0  0  0
    7.6030    3.0760   20.9361 H   0  0  0  0  0  0  0  0  0  0  0  0
  1  6  1  0
  1 32  1  0
  1 33  1  0
  2  4  1  0
  2  6  1  0
  3  7  1  0
  3 20  1  0
  4  5  1  0
  5 21  1  0
  7  8  1  0
  7 34  1  0
  8  9  1  0
  9 10  1  0
 10 11  1  0
 10 12  1  0
 11 13  1  0
 12 14  1  0
 13 15  1  0
 14 15  1  0
 15 35  1  0
 16 18  2  0
 16 22  1  0
 17 23  1  0
 17 29  1  0
 17 31  1  0
 18 19  1  0
 18 26  1  0
 19 20  2  0
 20 21  1  0
 21 22  2  0
 23 24  2  0
 24 30  1  0
 25 26  2  0
 25 30  1  0
 26 27  1  0
 27 28  2  0
 28 29  1  0
 29 30  2  0
M  END
>  <CHROM.0>  (68) 
-52.85133204,78.65256770,55.49594698

>  <CHROM.1>  (68) 
-75.42616090,176.90615219,70.95567514,173.23816842,149.88562605,61.06649567
-133.43107262,-71.05391232,-53.38220266,-78.32876892,67.77994878,2.06671025
2.76197528,16.65733781,0.00841381,-0.60966295,0.30179849

>  <Name>  (68) 
1uts_h

>  <RI>  (68) 
3.0543e+07

>  <Rbt.Current_Directory>  (68) 
/home/jta30/NA_complexes/1uts

>  <Rbt.Executable>  (68) 
rbdock ($Id: //depot/dev/client3/rdock/2013.1/src/exe/rbdock.cxx#4 $)

>  <Rbt.Library>  (68) 
libRbt.so (2013.1, Build901 2013/11/27)

>  <Rbt.Parameter_File>  (68) 
/software/dev_tools/swtree/cs400_centos7.2_pe2016-08/rdock/2013.1/centos7.2_conda/build/data/scripts/dock.prm

>  <Rbt.Receptor>  (68) 
1uts.prm

>  <SCORE>  (68) 
-6.40346

>  <SCORE.INTER>  (68) 
-8.33853

>  <SCORE.INTER.CONST>  (68) 
1

>  <SCORE.INTER.POLAR>  (68) 
-0.627525

>  <SCORE.INTER.REPUL>  (68) 
0

>  <SCORE.INTER.ROT>  (68) 
11

>  <SCORE.INTER.VDW>  (68) 
-22.6049

>  <SCORE.INTER.norm>  (68) 
-0.277951

>  <SCORE.INTRA>  (68) 
-5.60425

>  <SCORE.INTRA.DIHEDRAL>  (68) 
-6.76641

>  <SCORE.INTRA.DIHEDRAL.0>  (68) 
14.7121

>  <SCORE.INTRA.POLAR>  (68) 
-0.692337

>  <SCORE.INTRA.POLAR.0>  (68) 
0

>  <SCORE.INTRA.REPUL>  (68) 
0

>  <SCORE.INTRA.REPUL.0>  (68) 
0

>  <SCORE.INTRA.VDW>  (68) 
0.132902

>  <SCORE.INTRA.VDW.0>  (68) 
-0.649219

>  <SCORE.INTRA.norm>  (68) 
-0.186808

>  <SCORE.RESTR>  (68) 
0

>  <SCORE.RESTR.CAVITY>  (68) 
0

>  <SCORE.RESTR.norm>  (68) 
0

>  <SCORE.SYSTEM>  (68) 
7.53932

>  <SCORE.SYSTEM.CONST>  (68) 
0

>  <SCORE.SYSTEM.DIHEDRAL>  (68) 
2.13926

>  <SCORE.SYSTEM.POLAR>  (68) 
-0.0979119

>  <SCORE.SYSTEM.REPUL>  (68) 
0.811148

>  <SCORE.SYSTEM.VDW>  (68) 
2.74684

>  <SCORE.SYSTEM.norm>  (68) 
0.251311

>  <SCORE.heavy>  (68) 
30

>  <SCORE.norm>  (68) 
-0.213449

>  <pdb_header>  (68) 
CRYST1    1.000    1.000    1.000  90.00  90.00  90.00 P 1           1

>  <Predicted_Rank>  (68) 
69.0

$$$$
1uts_h
     RDKit          3D

 35 38  0  0  0  0  0  0  0  0999 V2000
    1.5195    4.9350   20.4293 N   0  0  0  0  0  0  0  0  0  0  0  0
    1.4187    4.1735   18.0954 C   0  0  0  0  0  0  0  0  0  0  0  0
   -0.1932    0.8732   15.3833 C   0  0  0  0  0  0  0  0  0  0  0  0
    1.7532    3.0110   17.1563 C   0  0  0  0  0  0  0  0  0  0  0  0
    1.3480    3.3460   15.8209 O   0  0  0  0  0  0  0  0  0  0  0  0
    1.9443    3.8651   19.4986 C   0  0  0  0  0  0  0  0  0  0  0  0
   -0.4402    0.0524   16.5905 N   0  0  0  0  0  0  0  0  0  0  0  0
    0.6752   -0.9132   16.7765 C   0  0  0  0  0  0  0  0  0  0  0  0
    0.3729   -1.8310   17.9646 C   0  0  0  0  0  0  0  0  0  0  0  0
    1.5483   -2.6887   18.2361 N   0  0  0  0  0  0  0  0  0  0  0  0
    1.6167   -3.7692   17.2106 C   0  0  0  0  0  0  0  0  0  0  0  0
    1.4280   -3.2742   19.6013 C   0  0  0  0  0  0  0  0  0  0  0  0
    2.8343   -4.6645   17.4916 C   0  0  0  0  0  0  0  0  0  0  0  0
    2.6450   -4.1739   19.8824 C   0  0  0  0  0  0  0  0  0  0  0  0
    2.7140   -5.2514   18.8564 N   0  0  0  0  0  0  0  0  0  0  0  0
   -2.1409    4.7803   15.7780 C   0  0  0  0  0  0  0  0  0  0  0  0
   -8.4996    3.9047   14.9403 N   0  0  0  0  0  0  0  0  0  0  0  0
   -2.9164    3.6184   15.5505 C   0  0  0  0  0  0  0  0  0  0  0  0
   -2.2788    2.3555   15.4231 C   0  0  0  0  0  0  0  0  0  0  0  0
   -0.8643    2.2542   15.5265 C   0  0  0  0  0  0  0  0  0  0  0  0
   -0.0829    3.4294   15.7396 C   0  0  0  0  0  0  0  0  0  0  0  0
   -0.7268    4.6904   15.8694 C   0  0  0  0  0  0  0  0  0  0  0  0
   -8.5639    3.3348   13.6484 C   0  0  0  0  0  0  0  0  0  0  0  0
   -7.2717    3.0189   13.1708 C   0  0  0  0  0  0  0  0  0  0  0  0
   -4.9728    3.2891   14.2691 C   0  0  0  0  0  0  0  0  0  0  0  0
   -4.3104    3.7263   15.4484 C   0  0  0  0  0  0  0  0  0  0  0  0
   -5.0646    4.2665   16.5262 C   0  0  0  0  0  0  0  0  0  0  0  0
   -6.4786    4.3668   16.4250 C   0  0  0  0  0  0  0  0  0  0  0  0
   -7.1433    3.9133   15.2429 C   0  0  0  0  0  0  0  0  0  0  0  0
   -6.3988    3.3791   14.1753 C   0  0  0  0  0  0  0  0  0  0  0  0
   -9.2435    4.2153   15.4991 H   0  0  0  0  0  0  0  0  0  0  0  0
    0.5413    4.7774   20.7105 H   0  0  0  0  0  0  0  0  0  0  0  0
    2.1219    4.9224   21.2645 H   0  0  0  0  0  0  0  0  0  0  0  0
   -1.3272   -0.4603   16.4807 H   0  0  0  0  0  0  0  0  0  0  0  0
    3.5338   -5.8466   19.0427 H   0  0  0  0  0  0  0  0  0  0  0  0
  1  6  1  0
  1 32  1  0
  1 33  1  0
  2  4  1  0
  2  6  1  0
  3  7  1  0
  3 20  1  0
  4  5  1  0
  5 21  1  0
  7  8  1  0
  7 34  1  0
  8  9  1  0
  9 10  1  0
 10 11  1  0
 10 12  1  0
 11 13  1  0
 12 14  1  0
 13 15  1  0
 14 15  1  0
 15 35  1  0
 16 18  2  0
 16 22  1  0
 17 23  1  0
 17 29  1  0
 17 31  1  0
 18 19  1  0
 18 26  1  0
 19 20  2  0
 20 21  1  0
 21 22  2  0
 23 24  2  0
 24 30  1  0
 25 26  2  0
 25 30  1  0
 26 27  1  0
 27 28  2  0
 28 29  1  0
 29 30  2  0
M  END
>  <CHROM.0>  (69) 
-34.63129670,-87.63835232,-53.96794632

>  <CHROM.1>  (69) 
79.89620349,-175.73006855,-175.19246075,-151.96845677,-73.07969612,-67.22007518
-84.70145225,-175.90990562,-173.85616890,-75.80925850,121.57562078,-1.33911375
1.46720224,16.67533204,-0.62619007,-0.41793438,0.01437759

>  <Name>  (69) 
1uts_h

>  <RI>  (69) 
3.0543e+07

>  <Rbt.Current_Directory>  (69) 
/home/jta30/NA_complexes/1uts

>  <Rbt.Executable>  (69) 
rbdock ($Id: //depot/dev/client3/rdock/2013.1/src/exe/rbdock.cxx#4 $)

>  <Rbt.Library>  (69) 
libRbt.so (2013.1, Build901 2013/11/27)

>  <Rbt.Parameter_File>  (69) 
/software/dev_tools/swtree/cs400_centos7.2_pe2016-08/rdock/2013.1/centos7.2_conda/build/data/scripts/dock.prm

>  <Rbt.Receptor>  (69) 
1uts.prm

>  <SCORE>  (69) 
-4.53383

>  <SCORE.INTER>  (69) 
-6.54474

>  <SCORE.INTER.CONST>  (69) 
1

>  <SCORE.INTER.POLAR>  (69) 
0

>  <SCORE.INTER.REPUL>  (69) 
0

>  <SCORE.INTER.ROT>  (69) 
11

>  <SCORE.INTER.VDW>  (69) 
-22.9447

>  <SCORE.INTER.norm>  (69) 
-0.218158

>  <SCORE.INTRA>  (69) 
-3.56807

>  <SCORE.INTRA.DIHEDRAL>  (69) 
-5.94661

>  <SCORE.INTRA.DIHEDRAL.0>  (69) 
14.7121

>  <SCORE.INTRA.POLAR>  (69) 
0

>  <SCORE.INTRA.POLAR.0>  (69) 
0

>  <SCORE.INTRA.REPUL>  (69) 
0

>  <SCORE.INTRA.REPUL.0>  (69) 
0

>  <SCORE.INTRA.VDW>  (69) 
-0.594764

>  <SCORE.INTRA.VDW.0>  (69) 
-0.649219

>  <SCORE.INTRA.norm>  (69) 
-0.118936

>  <SCORE.RESTR>  (69) 
0

>  <SCORE.RESTR.CAVITY>  (69) 
0

>  <SCORE.RESTR.norm>  (69) 
0

>  <SCORE.SYSTEM>  (69) 
5.57898

>  <SCORE.SYSTEM.CONST>  (69) 
0

>  <SCORE.SYSTEM.DIHEDRAL>  (69) 
6.19769

>  <SCORE.SYSTEM.POLAR>  (69) 
-1.07257

>  <SCORE.SYSTEM.REPUL>  (69) 
0.868544

>  <SCORE.SYSTEM.VDW>  (69) 
1.78416

>  <SCORE.SYSTEM.norm>  (69) 
0.185966

>  <SCORE.heavy>  (69) 
30

>  <SCORE.norm>  (69) 
-0.151128

>  <pdb_header>  (69) 
CRYST1    1.000    1.000    1.000  90.00  90.00  90.00 P 1           1

>  <Predicted_Rank>  (69) 
70.0

$$$$
1uts_h
     RDKit          3D

 35 38  0  0  0  0  0  0  0  0999 V2000
    2.9567    1.9656   17.3970 N   0  0  0  0  0  0  0  0  0  0  0  0
    3.3002    4.0967   16.2231 C   0  0  0  0  0  0  0  0  0  0  0  0
   -1.1091    5.2364   17.6509 C   0  0  0  0  0  0  0  0  0  0  0  0
    1.9145    4.1357   15.5723 C   0  0  0  0  0  0  0  0  0  0  0  0
    0.9597    3.5177   16.4477 O   0  0  0  0  0  0  0  0  0  0  0  0
    3.7619    2.6443   16.3565 C   0  0  0  0  0  0  0  0  0  0  0  0
    0.2715    5.7701   17.6156 N   0  0  0  0  0  0  0  0  0  0  0  0
    0.6666    6.2274   18.9741 C   0  0  0  0  0  0  0  0  0  0  0  0
    2.1933    6.2332   19.0950 C   0  0  0  0  0  0  0  0  0  0  0  0
    2.5762    6.5708   20.4843 N   0  0  0  0  0  0  0  0  0  0  0  0
    3.8465    7.3518   20.4690 C   0  0  0  0  0  0  0  0  0  0  0  0
    2.7471    5.3153   21.2688 C   0  0  0  0  0  0  0  0  0  0  0  0
    4.2494    7.7010   21.9108 C   0  0  0  0  0  0  0  0  0  0  0  0
    3.1542    5.6636   22.7118 C   0  0  0  0  0  0  0  0  0  0  0  0
    4.4217    6.4457   22.6956 N   0  0  0  0  0  0  0  0  0  0  0  0
   -1.9169    2.7535   14.1299 C   0  0  0  0  0  0  0  0  0  0  0  0
   -8.1646    3.5071   12.5988 N   0  0  0  0  0  0  0  0  0  0  0  0
   -2.9436    3.5518   14.6884 C   0  0  0  0  0  0  0  0  0  0  0  0
   -2.6752    4.3537   15.8297 C   0  0  0  0  0  0  0  0  0  0  0  0
   -1.3776    4.3595   16.4112 C   0  0  0  0  0  0  0  0  0  0  0  0
   -0.3482    3.5413   15.8562 C   0  0  0  0  0  0  0  0  0  0  0  0
   -0.6219    2.7431   14.7118 C   0  0  0  0  0  0  0  0  0  0  0  0
   -8.8365    3.2363   13.8125 C   0  0  0  0  0  0  0  0  0  0  0  0
   -7.9182    3.0949   14.8776 C   0  0  0  0  0  0  0  0  0  0  0  0
   -5.3634    3.2832   14.9163 C   0  0  0  0  0  0  0  0  0  0  0  0
   -4.2209    3.5398   14.1105 C   0  0  0  0  0  0  0  0  0  0  0  0
   -4.3765    3.7909   12.7195 C   0  0  0  0  0  0  0  0  0  0  0  0
   -5.6726    3.7876   12.1367 C   0  0  0  0  0  0  0  0  0  0  0  0
   -6.8212    3.5428   12.9526 C   0  0  0  0  0  0  0  0  0  0  0  0
   -6.6692    3.2936   14.3288 C   0  0  0  0  0  0  0  0  0  0  0  0
   -8.5577    3.6465   11.7111 H   0  0  0  0  0  0  0  0  0  0  0  0
    3.1630    2.3810   18.3165 H   0  0  0  0  0  0  0  0  0  0  0  0
    1.9553    2.0817   17.1859 H   0  0  0  0  0  0  0  0  0  0  0  0
    0.3162    6.5615   16.9573 H   0  0  0  0  0  0  0  0  0  0  0  0
    4.6870    6.6839   23.6620 H   0  0  0  0  0  0  0  0  0  0  0  0
  1  6  1  0
  1 32  1  0
  1 33  1  0
  2  4  1  0
  2  6  1  0
  3  7  1  0
  3 20  1  0
  4  5  1  0
  5 21  1  0
  7  8  1  0
  7 34  1  0
  8  9  1  0
  9 10  1  0
 10 11  1  0
 10 12  1  0
 11 13  1  0
 12 14  1  0
 13 15  1  0
 14 15  1  0
 15 35  1  0
 16 18  2  0
 16 22  1  0
 17 23  1  0
 17 29  1  0
 17 31  1  0
 18 19  1  0
 18 26  1  0
 19 20  2  0
 20 21  1  0
 21 22  2  0
 23 24  2  0
 24 30  1  0
 25 26  2  0
 25 30  1  0
 26 27  1  0
 27 28  2  0
 28 29  1  0
 29 30  2  0
M  END
>  <CHROM.0>  (70) 
58.52393475,-87.82354891,53.56227343

>  <CHROM.1>  (70) 
-66.43479354,65.25311516,-70.75496959,-161.78836598,-145.32376471,-179.91468304
-111.33156924,156.90916663,-174.92460001,-146.28783741,127.46727571,-0.81397429
4.43195359,16.80053263,-0.62901852,0.16405838,-2.13867989

>  <Name>  (70) 
1uts_h

>  <RI>  (70) 
3.0543e+07

>  <Rbt.Current_Directory>  (70) 
/home/jta30/NA_complexes/1uts

>  <Rbt.Executable>  (70) 
rbdock ($Id: //depot/dev/client3/rdock/2013.1/src/exe/rbdock.cxx#4 $)

>  <Rbt.Library>  (70) 
libRbt.so (2013.1, Build901 2013/11/27)

>  <Rbt.Parameter_File>  (70) 
/software/dev_tools/swtree/cs400_centos7.2_pe2016-08/rdock/2013.1/centos7.2_conda/build/data/scripts/dock.prm

>  <Rbt.Receptor>  (70) 
1uts.prm

>  <SCORE>  (70) 
-11.7803

>  <SCORE.INTER>  (70) 
-11.6398

>  <SCORE.INTER.CONST>  (70) 
1

>  <SCORE.INTER.POLAR>  (70) 
-0.882376

>  <SCORE.INTER.REPUL>  (70) 
0

>  <SCORE.INTER.ROT>  (70) 
11

>  <SCORE.INTER.VDW>  (70) 
-25.0398

>  <SCORE.INTER.norm>  (70) 
-0.387995

>  <SCORE.INTRA>  (70) 
-6.52811

>  <SCORE.INTRA.DIHEDRAL>  (70) 
-5.30617

>  <SCORE.INTRA.DIHEDRAL.0>  (70) 
14.7121

>  <SCORE.INTRA.POLAR>  (70) 
-0.64958

>  <SCORE.INTRA.POLAR.0>  (70) 
0

>  <SCORE.INTRA.REPUL>  (70) 
0

>  <SCORE.INTRA.REPUL.0>  (70) 
0

>  <SCORE.INTRA.VDW>  (70) 
-1.66645

>  <SCORE.INTRA.VDW.0>  (70) 
-0.649219

>  <SCORE.INTRA.norm>  (70) 
-0.217604

>  <SCORE.RESTR>  (70) 
0.000747041

>  <SCORE.RESTR.CAVITY>  (70) 
0.000747041

>  <SCORE.RESTR.norm>  (70) 
2.49014e-05

>  <SCORE.SYSTEM>  (70) 
6.38689

>  <SCORE.SYSTEM.CONST>  (70) 
0

>  <SCORE.SYSTEM.DIHEDRAL>  (70) 
3.57877

>  <SCORE.SYSTEM.POLAR>  (70) 
-0.898345

>  <SCORE.SYSTEM.REPUL>  (70) 
1.24197

>  <SCORE.SYSTEM.VDW>  (70) 
1.44201

>  <SCORE.SYSTEM.norm>  (70) 
0.212896

>  <SCORE.heavy>  (70) 
30

>  <SCORE.norm>  (70) 
-0.392677

>  <pdb_header>  (70) 
CRYST1    1.000    1.000    1.000  90.00  90.00  90.00 P 1           1

>  <Predicted_Rank>  (70) 
71.0

$$$$
1uts_h
     RDKit          3D

 35 38  0  0  0  0  0  0  0  0999 V2000
    6.6066    5.3242   20.2493 N   0  0  0  0  0  0  0  0  0  0  0  0
    5.0972    4.2548   18.6321 C   0  0  0  0  0  0  0  0  0  0  0  0
    1.6900    0.9657   17.3487 C   0  0  0  0  0  0  0  0  0  0  0  0
    3.6743    4.2667   18.0661 C   0  0  0  0  0  0  0  0  0  0  0  0
    3.5474    3.2365   17.0750 O   0  0  0  0  0  0  0  0  0  0  0  0
    5.2341    5.3465   19.6950 C   0  0  0  0  0  0  0  0  0  0  0  0
    3.1392    0.6791   17.2498 N   0  0  0  0  0  0  0  0  0  0  0  0
    3.4917   -0.4406   18.1625 C   0  0  0  0  0  0  0  0  0  0  0  0
    4.4152   -1.4262   17.4403 C   0  0  0  0  0  0  0  0  0  0  0  0
    4.3600   -2.7405   18.1189 N   0  0  0  0  0  0  0  0  0  0  0  0
    5.4596   -3.6067   17.6045 C   0  0  0  0  0  0  0  0  0  0  0  0
    3.0357   -3.3739   17.8623 C   0  0  0  0  0  0  0  0  0  0  0  0
    5.4031   -4.9743   18.3043 C   0  0  0  0  0  0  0  0  0  0  0  0
    2.9794   -4.7451   18.5595 C   0  0  0  0  0  0  0  0  0  0  0  0
    4.0792   -5.6088   18.0470 N   0  0  0  0  0  0  0  0  0  0  0  0
    0.6498    4.5479   15.0464 C   0  0  0  0  0  0  0  0  0  0  0  0
   -5.1095    3.7907   12.3018 N   0  0  0  0  0  0  0  0  0  0  0  0
   -0.2641    3.4710   15.1385 C   0  0  0  0  0  0  0  0  0  0  0  0
    0.0796    2.3130   15.8858 C   0  0  0  0  0  0  0  0  0  0  0  0
    1.3373    2.2332   16.5443 C   0  0  0  0  0  0  0  0  0  0  0  0
    2.2639    3.3135   16.4365 C   0  0  0  0  0  0  0  0  0  0  0  0
    1.9132    4.4714   15.6897 C   0  0  0  0  0  0  0  0  0  0  0  0
   -4.5484    3.9631   11.0160 C   0  0  0  0  0  0  0  0  0  0  0  0
   -3.1368    3.9931   11.0807 C   0  0  0  0  0  0  0  0  0  0  0  0
   -1.5511    3.7590   13.0794 C   0  0  0  0  0  0  0  0  0  0  0  0
   -1.5017    3.5563   14.4854 C   0  0  0  0  0  0  0  0  0  0  0  0
   -2.7090    3.4332   15.2267 C   0  0  0  0  0  0  0  0  0  0  0  0
   -3.9627    3.5106   14.5622 C   0  0  0  0  0  0  0  0  0  0  0  0
   -4.0090    3.7007   13.1456 C   0  0  0  0  0  0  0  0  0  0  0  0
   -2.8156    3.8232   12.4106 C   0  0  0  0  0  0  0  0  0  0  0  0
   -6.0589    3.7379   12.5423 H   0  0  0  0  0  0  0  0  0  0  0  0
    6.8215    4.3788   20.5967 H   0  0  0  0  0  0  0  0  0  0  0  0
    7.2788    5.5788   19.5117 H   0  0  0  0  0  0  0  0  0  0  0  0
    3.6736    1.5203   17.5116 H   0  0  0  0  0  0  0  0  0  0  0  0
    4.0436   -6.5225   18.5213 H   0  0  0  0  0  0  0  0  0  0  0  0
  1  6  1  0
  1 32  1  0
  1 33  1  0
  2  4  1  0
  2  6  1  0
  3  7  1  0
  3 20  1  0
  4  5  1  0
  5 21  1  0
  7  8  1  0
  7 34  1  0
  8  9  1  0
  9 10  1  0
 10 11  1  0
 10 12  1  0
 11 13  1  0
 12 14  1  0
 13 15  1  0
 14 15  1  0
 15 35  1  0
 16 18  2  0
 16 22  1  0
 17 23  1  0
 17 29  1  0
 17 31  1  0
 18 19  1  0
 18 26  1  0
 19 20  2  0
 20 21  1  0
 21 22  2  0
 23 24  2  0
 24 30  1  0
 25 26  2  0
 25 30  1  0
 26 27  1  0
 27 28  2  0
 28 29  1  0
 29 30  2  0
M  END
>  <CHROM.0>  (71) 
59.76722713,66.76841097,53.90936270

>  <CHROM.1>  (71) 
-54.76526051,-179.66869534,179.46779396,173.00115928,145.70723561,-174.31681874
-117.43745254,135.53214070,-159.03027604,-168.14116010,58.17231952,1.51278775
1.57707672,16.30607479,-0.55941987,-0.61017194,0.01167626

>  <Name>  (71) 
1uts_h

>  <RI>  (71) 
3.0543e+07

>  <Rbt.Current_Directory>  (71) 
/home/jta30/NA_complexes/1uts

>  <Rbt.Executable>  (71) 
rbdock ($Id: //depot/dev/client3/rdock/2013.1/src/exe/rbdock.cxx#4 $)

>  <Rbt.Library>  (71) 
libRbt.so (2013.1, Build901 2013/11/27)

>  <Rbt.Parameter_File>  (71) 
/software/dev_tools/swtree/cs400_centos7.2_pe2016-08/rdock/2013.1/centos7.2_conda/build/data/scripts/dock.prm

>  <Rbt.Receptor>  (71) 
1uts.prm

>  <SCORE>  (71) 
-8.74857

>  <SCORE.INTER>  (71) 
-6.97177

>  <SCORE.INTER.CONST>  (71) 
1

>  <SCORE.INTER.POLAR>  (71) 
-0.203877

>  <SCORE.INTER.REPUL>  (71) 
0.000675217

>  <SCORE.INTER.ROT>  (71) 
11

>  <SCORE.INTER.VDW>  (71) 
-22.682

>  <SCORE.INTER.norm>  (71) 
-0.232392

>  <SCORE.INTRA>  (71) 
-4.82719

>  <SCORE.INTRA.DIHEDRAL>  (71) 
-4.57118

>  <SCORE.INTRA.DIHEDRAL.0>  (71) 
14.7121

>  <SCORE.INTRA.POLAR>  (71) 
-0.67243

>  <SCORE.INTRA.POLAR.0>  (71) 
0

>  <SCORE.INTRA.REPUL>  (71) 
0

>  <SCORE.INTRA.REPUL.0>  (71) 
0

>  <SCORE.INTRA.VDW>  (71) 
-0.255344

>  <SCORE.INTRA.VDW.0>  (71) 
-0.649219

>  <SCORE.INTRA.norm>  (71) 
-0.160906

>  <SCORE.RESTR>  (71) 
0

>  <SCORE.RESTR.CAVITY>  (71) 
0

>  <SCORE.RESTR.norm>  (71) 
0

>  <SCORE.SYSTEM>  (71) 
3.05039

>  <SCORE.SYSTEM.CONST>  (71) 
0

>  <SCORE.SYSTEM.DIHEDRAL>  (71) 
0.640131

>  <SCORE.SYSTEM.POLAR>  (71) 
-0.100197

>  <SCORE.SYSTEM.REPUL>  (71) 
0.800513

>  <SCORE.SYSTEM.VDW>  (71) 
-0.931572

>  <SCORE.SYSTEM.norm>  (71) 
0.10168

>  <SCORE.heavy>  (71) 
30

>  <SCORE.norm>  (71) 
-0.291619

>  <pdb_header>  (71) 
CRYST1    1.000    1.000    1.000  90.00  90.00  90.00 P 1           1

>  <Predicted_Rank>  (71) 
72.0

$$$$
1uts_h
     RDKit          3D

 35 38  0  0  0  0  0  0  0  0999 V2000
    3.0164    7.0072   20.3509 N   0  0  0  0  0  0  0  0  0  0  0  0
    2.8844    4.5853   20.7437 C   0  0  0  0  0  0  0  0  0  0  0  0
    2.8938    4.1436   16.0920 C   0  0  0  0  0  0  0  0  0  0  0  0
    1.8836    4.2809   19.6252 C   0  0  0  0  0  0  0  0  0  0  0  0
    1.9550    5.3115   18.6289 O   0  0  0  0  0  0  0  0  0  0  0  0
    2.5980    5.9719   21.3229 C   0  0  0  0  0  0  0  0  0  0  0  0
    3.0383    2.6895   15.8536 N   0  0  0  0  0  0  0  0  0  0  0  0
    2.7648    1.9460   17.1120 C   0  0  0  0  0  0  0  0  0  0  0  0
    1.7627    0.8201   16.8408 C   0  0  0  0  0  0  0  0  0  0  0  0
    0.4533    1.4040   16.4730 N   0  0  0  0  0  0  0  0  0  0  0  0
   -0.4062    1.4906   17.6886 C   0  0  0  0  0  0  0  0  0  0  0  0
   -0.1950    0.5506   15.4374 C   0  0  0  0  0  0  0  0  0  0  0  0
   -1.7687    2.0932   17.3097 C   0  0  0  0  0  0  0  0  0  0  0  0
   -1.5612    1.1510   15.0599 C   0  0  0  0  0  0  0  0  0  0  0  0
   -2.4181    1.2394   16.2749 N   0  0  0  0  0  0  0  0  0  0  0  0
   -1.3186    5.1550   16.7606 C   0  0  0  0  0  0  0  0  0  0  0  0
   -4.5139    3.7714   11.2898 N   0  0  0  0  0  0  0  0  0  0  0  0
   -0.9053    4.6120   15.5205 C   0  0  0  0  0  0  0  0  0  0  0  0
    0.4613    4.2870   15.3104 C   0  0  0  0  0  0  0  0  0  0  0  0
    1.4152    4.5023   16.3427 C   0  0  0  0  0  0  0  0  0  0  0  0
    0.9990    5.0650   17.5866 C   0  0  0  0  0  0  0  0  0  0  0  0
   -0.3709    5.3856   17.7924 C   0  0  0  0  0  0  0  0  0  0  0  0
   -3.6029    4.0032   10.2343 C   0  0  0  0  0  0  0  0  0  0  0  0
   -2.3236    4.3352   10.7348 C   0  0  0  0  0  0  0  0  0  0  0  0
   -1.4713    4.5304   13.1430 C   0  0  0  0  0  0  0  0  0  0  0  0
   -1.8513    4.4039   14.5069 C   0  0  0  0  0  0  0  0  0  0  0  0
   -3.1899    4.0594   14.8408 C   0  0  0  0  0  0  0  0  0  0  0  0
   -4.1456    3.8397   13.8122 C   0  0  0  0  0  0  0  0  0  0  0  0
   -3.7568    3.9540   12.4408 C   0  0  0  0  0  0  0  0  0  0  0  0
   -2.4330    4.2954   12.1085 C   0  0  0  0  0  0  0  0  0  0  0  0
   -5.4619    3.5286   11.2247 H   0  0  0  0  0  0  0  0  0  0  0  0
    2.5639    6.8290   19.4431 H   0  0  0  0  0  0  0  0  0  0  0  0
    2.7359    7.9359   20.6968 H   0  0  0  0  0  0  0  0  0  0  0  0
    3.9970    2.4882   15.5341 H   0  0  0  0  0  0  0  0  0  0  0  0
   -3.3283    1.6489   16.0203 H   0  0  0  0  0  0  0  0  0  0  0  0
  1  6  1  0
  1 32  1  0
  1 33  1  0
  2  4  1  0
  2  6  1  0
  3  7  1  0
  3 20  1  0
  4  5  1  0
  5 21  1  0
  7  8  1  0
  7 34  1  0
  8  9  1  0
  9 10  1  0
 10 11  1  0
 10 12  1  0
 11 13  1  0
 12 14  1  0
 13 15  1  0
 14 15  1  0
 15 35  1  0
 16 18  2  0
 16 22  1  0
 17 23  1  0
 17 29  1  0
 17 31  1  0
 18 19  1  0
 18 26  1  0
 19 20  2  0
 20 21  1  0
 21 22  2  0
 23 24  2  0
 24 30  1  0
 25 26  2  0
 25 30  1  0
 26 27  1  0
 27 28  2  0
 28 29  1  0
 29 30  2  0
M  END
>  <CHROM.0>  (72) 
-34.86480968,-85.61052882,51.87098172

>  <CHROM.1>  (72) 
54.27111290,56.57727722,-72.52077005,-69.09399582,-63.01965908,-178.47604538
-101.43748835,130.27372905,-66.25610647,-95.16876974,147.86535890,-0.23039381
3.66030226,16.03873631,0.23293793,-0.86947163,0.14987603

>  <Name>  (72) 
1uts_h

>  <RI>  (72) 
3.0543e+07

>  <Rbt.Current_Directory>  (72) 
/home/jta30/NA_complexes/1uts

>  <Rbt.Executable>  (72) 
rbdock ($Id: //depot/dev/client3/rdock/2013.1/src/exe/rbdock.cxx#4 $)

>  <Rbt.Library>  (72) 
libRbt.so (2013.1, Build901 2013/11/27)

>  <Rbt.Parameter_File>  (72) 
/software/dev_tools/swtree/cs400_centos7.2_pe2016-08/rdock/2013.1/centos7.2_conda/build/data/scripts/dock.prm

>  <Rbt.Receptor>  (72) 
1uts.prm

>  <SCORE>  (72) 
-11.281

>  <SCORE.INTER>  (72) 
-9.27439

>  <SCORE.INTER.CONST>  (72) 
1

>  <SCORE.INTER.POLAR>  (72) 
0

>  <SCORE.INTER.REPUL>  (72) 
0

>  <SCORE.INTER.ROT>  (72) 
11

>  <SCORE.INTER.VDW>  (72) 
-25.6744

>  <SCORE.INTER.norm>  (72) 
-0.309146

>  <SCORE.INTRA>  (72) 
-9.39386

>  <SCORE.INTRA.DIHEDRAL>  (72) 
-3.8751

>  <SCORE.INTRA.DIHEDRAL.0>  (72) 
14.7121

>  <SCORE.INTRA.POLAR>  (72) 
-0.661695

>  <SCORE.INTRA.POLAR.0>  (72) 
0

>  <SCORE.INTRA.REPUL>  (72) 
0

>  <SCORE.INTRA.REPUL.0>  (72) 
0

>  <SCORE.INTRA.VDW>  (72) 
-5.20655

>  <SCORE.INTRA.VDW.0>  (72) 
-0.649219

>  <SCORE.INTRA.norm>  (72) 
-0.313129

>  <SCORE.RESTR>  (72) 
0

>  <SCORE.RESTR.CAVITY>  (72) 
0

>  <SCORE.RESTR.norm>  (72) 
0

>  <SCORE.SYSTEM>  (72) 
7.38724

>  <SCORE.SYSTEM.CONST>  (72) 
0

>  <SCORE.SYSTEM.DIHEDRAL>  (72) 
5.92594

>  <SCORE.SYSTEM.POLAR>  (72) 
-1.0369

>  <SCORE.SYSTEM.REPUL>  (72) 
1.15798

>  <SCORE.SYSTEM.VDW>  (72) 
2.15983

>  <SCORE.SYSTEM.norm>  (72) 
0.246241

>  <SCORE.heavy>  (72) 
30

>  <SCORE.norm>  (72) 
-0.376034

>  <pdb_header>  (72) 
CRYST1    1.000    1.000    1.000  90.00  90.00  90.00 P 1           1

>  <Predicted_Rank>  (72) 
73.0

$$$$
1uts_h
     RDKit          3D

 35 38  0  0  0  0  0  0  0  0999 V2000
    4.1754    1.5120   20.8639 N   0  0  0  0  0  0  0  0  0  0  0  0
    2.2960    2.8974   20.0986 C   0  0  0  0  0  0  0  0  0  0  0  0
    1.2105    0.9032   16.0691 C   0  0  0  0  0  0  0  0  0  0  0  0
    1.1889    3.0160   19.0472 C   0  0  0  0  0  0  0  0  0  0  0  0
    1.7781    3.2488   17.7594 O   0  0  0  0  0  0  0  0  0  0  0  0
    3.1295    1.6442   19.8247 C   0  0  0  0  0  0  0  0  0  0  0  0
    2.6613    1.1479   16.2345 N   0  0  0  0  0  0  0  0  0  0  0  0
    3.3320   -0.1012   16.6826 C   0  0  0  0  0  0  0  0  0  0  0  0
    4.7811    0.2013   17.0753 C   0  0  0  0  0  0  0  0  0  0  0  0
    5.3938   -1.0089   17.6676 N   0  0  0  0  0  0  0  0  0  0  0  0
    6.3255   -0.6049   18.7597 C   0  0  0  0  0  0  0  0  0  0  0  0
    6.1272   -1.7598   16.6096 C   0  0  0  0  0  0  0  0  0  0  0  0
    6.9668   -1.8592   19.3748 C   0  0  0  0  0  0  0  0  0  0  0  0
    6.7730   -3.0142   17.2252 C   0  0  0  0  0  0  0  0  0  0  0  0
    7.7015   -2.6100   18.3174 N   0  0  0  0  0  0  0  0  0  0  0  0
   -0.9569    4.6835   15.5931 C   0  0  0  0  0  0  0  0  0  0  0  0
   -5.0098    4.0844   10.5986 N   0  0  0  0  0  0  0  0  0  0  0  0
   -1.2474    3.5855   14.7486 C   0  0  0  0  0  0  0  0  0  0  0  0
   -0.5410    2.3636   14.9079 C   0  0  0  0  0  0  0  0  0  0  0  0
    0.4549    2.2387   15.9151 C   0  0  0  0  0  0  0  0  0  0  0  0
    0.7577    3.3523   16.7549 C   0  0  0  0  0  0  0  0  0  0  0  0
    0.0451    4.5720   16.5929 C   0  0  0  0  0  0  0  0  0  0  0  0
   -4.0845    4.2337    9.5406 C   0  0  0  0  0  0  0  0  0  0  0  0
   -2.7565    4.2103   10.0238 C   0  0  0  0  0  0  0  0  0  0  0  0
   -1.8496    3.9191   12.4022 C   0  0  0  0  0  0  0  0  0  0  0  0
   -2.2296    3.7167   13.7568 C   0  0  0  0  0  0  0  0  0  0  0  0
   -3.6068    3.6405   14.1028 C   0  0  0  0  0  0  0  0  0  0  0  0
   -4.6013    3.7643   13.0952 C   0  0  0  0  0  0  0  0  0  0  0  0
   -4.2155    3.9540   11.7313 C   0  0  0  0  0  0  0  0  0  0  0  0
   -2.8535    4.0303   11.3872 C   0  0  0  0  0  0  0  0  0  0  0  0
   -5.9890    4.0680   10.5443 H   0  0  0  0  0  0  0  0  0  0  0  0
    3.7322    1.3432   21.7780 H   0  0  0  0  0  0  0  0  0  0  0  0
    4.7922    0.7207   20.6312 H   0  0  0  0  0  0  0  0  0  0  0  0
    2.8061    1.8892   16.9354 H   0  0  0  0  0  0  0  0  0  0  0  0
    8.1257   -3.4520   18.7324 H   0  0  0  0  0  0  0  0  0  0  0  0
  1  6  1  0
  1 32  1  0
  1 33  1  0
  2  4  1  0
  2  6  1  0
  3  7  1  0
  3 20  1  0
  4  5  1  0
  5 21  1  0
  7  8  1  0
  7 34  1  0
  8  9  1  0
  9 10  1  0
 10 11  1  0
 10 12  1  0
 11 13  1  0
 12 14  1  0
 13 15  1  0
 14 15  1  0
 15 35  1  0
 16 18  2  0
 16 22  1  0
 17 23  1  0
 17 29  1  0
 17 31  1  0
 18 19  1  0
 18 26  1  0
 19 20  2  0
 20 21  1  0
 21 22  2  0
 23 24  2  0
 24 30  1  0
 25 26  2  0
 25 30  1  0
 26 27  1  0
 27 28  2  0
 28 29  1  0
 29 30  2  0
M  END
>  <CHROM.0>  (73) 
57.39019367,-87.03187537,-56.26151032

>  <CHROM.1>  (73) 
65.40439179,-65.94195945,-178.45991761,167.37941337,135.24618204,179.51554989
-99.85081068,-170.73640253,173.44480182,-144.26239825,101.99485976,1.27529251
1.86901593,15.94485407,0.31471657,-0.66777360,1.12951870

>  <Name>  (73) 
1uts_h

>  <RI>  (73) 
3.0543e+07

>  <Rbt.Current_Directory>  (73) 
/home/jta30/NA_complexes/1uts

>  <Rbt.Executable>  (73) 
rbdock ($Id: //depot/dev/client3/rdock/2013.1/src/exe/rbdock.cxx#4 $)

>  <Rbt.Library>  (73) 
libRbt.so (2013.1, Build901 2013/11/27)

>  <Rbt.Parameter_File>  (73) 
/software/dev_tools/swtree/cs400_centos7.2_pe2016-08/rdock/2013.1/centos7.2_conda/build/data/scripts/dock.prm

>  <Rbt.Receptor>  (73) 
1uts.prm

>  <SCORE>  (73) 
-10.2322

>  <SCORE.INTER>  (73) 
-6.43494

>  <SCORE.INTER.CONST>  (73) 
1

>  <SCORE.INTER.POLAR>  (73) 
0

>  <SCORE.INTER.REPUL>  (73) 
0

>  <SCORE.INTER.ROT>  (73) 
11

>  <SCORE.INTER.VDW>  (73) 
-22.8349

>  <SCORE.INTER.norm>  (73) 
-0.214498

>  <SCORE.INTRA>  (73) 
-8.44475

>  <SCORE.INTRA.DIHEDRAL>  (73) 
-6.31788

>  <SCORE.INTRA.DIHEDRAL.0>  (73) 
14.7121

>  <SCORE.INTRA.POLAR>  (73) 
-0.74851

>  <SCORE.INTRA.POLAR.0>  (73) 
0

>  <SCORE.INTRA.REPUL>  (73) 
0

>  <SCORE.INTRA.REPUL.0>  (73) 
0

>  <SCORE.INTRA.VDW>  (73) 
-2.74088

>  <SCORE.INTRA.VDW.0>  (73) 
-0.649219

>  <SCORE.INTRA.norm>  (73) 
-0.281492

>  <SCORE.RESTR>  (73) 
0

>  <SCORE.RESTR.CAVITY>  (73) 
0

>  <SCORE.RESTR.norm>  (73) 
0

>  <SCORE.SYSTEM>  (73) 
4.6475

>  <SCORE.SYSTEM.CONST>  (73) 
0

>  <SCORE.SYSTEM.DIHEDRAL>  (73) 
3.32648

>  <SCORE.SYSTEM.POLAR>  (73) 
-0.89071

>  <SCORE.SYSTEM.REPUL>  (73) 
0.881503

>  <SCORE.SYSTEM.VDW>  (73) 
1.60516

>  <SCORE.SYSTEM.norm>  (73) 
0.154917

>  <SCORE.heavy>  (73) 
30

>  <SCORE.norm>  (73) 
-0.341073

>  <pdb_header>  (73) 
CRYST1    1.000    1.000    1.000  90.00  90.00  90.00 P 1           1

>  <Predicted_Rank>  (73) 
74.0

$$$$
1uts_h
     RDKit          3D

 35 38  0  0  0  0  0  0  0  0999 V2000
    4.1139    2.7038   16.2462 N   0  0  0  0  0  0  0  0  0  0  0  0
    2.2622    4.2204   15.6911 C   0  0  0  0  0  0  0  0  0  0  0  0
   -1.0524    1.6651   14.8373 C   0  0  0  0  0  0  0  0  0  0  0  0
    0.7553    4.2956   15.4283 C   0  0  0  0  0  0  0  0  0  0  0  0
    0.0473    3.7823   16.5663 O   0  0  0  0  0  0  0  0  0  0  0  0
    2.6606    2.7704   15.9723 C   0  0  0  0  0  0  0  0  0  0  0  0
   -0.6530    0.6656   15.8540 N   0  0  0  0  0  0  0  0  0  0  0  0
    0.3370   -0.2765   15.2682 C   0  0  0  0  0  0  0  0  0  0  0  0
    0.9827   -1.1072   16.3811 C   0  0  0  0  0  0  0  0  0  0  0  0
    1.8711   -0.2421   17.1893 N   0  0  0  0  0  0  0  0  0  0  0  0
    3.0623   -1.0277   17.6225 C   0  0  0  0  0  0  0  0  0  0  0  0
    1.1230    0.2643   18.3745 C   0  0  0  0  0  0  0  0  0  0  0  0
    3.9856   -0.1333   18.4656 C   0  0  0  0  0  0  0  0  0  0  0  0
    2.0477    1.1571   19.2215 C   0  0  0  0  0  0  0  0  0  0  0  0
    3.2383    0.3725   19.6518 N   0  0  0  0  0  0  0  0  0  0  0  0
   -3.5974    4.7537   16.6257 C   0  0  0  0  0  0  0  0  0  0  0  0
   -9.6446    3.7178   14.5322 N   0  0  0  0  0  0  0  0  0  0  0  0
   -4.1625    3.7643   15.7860 C   0  0  0  0  0  0  0  0  0  0  0  0
   -3.3321    2.7667   15.2093 C   0  0  0  0  0  0  0  0  0  0  0  0
   -1.9353    2.7566   15.4753 C   0  0  0  0  0  0  0  0  0  0  0  0
   -1.3650    3.7649   16.3092 C   0  0  0  0  0  0  0  0  0  0  0  0
   -2.2017    4.7592   16.8862 C   0  0  0  0  0  0  0  0  0  0  0  0
   -9.5111    3.3352   13.1781 C   0  0  0  0  0  0  0  0  0  0  0  0
   -8.1501    3.1881   12.8265 C   0  0  0  0  0  0  0  0  0  0  0  0
   -6.0234    3.4692   14.2273 C   0  0  0  0  0  0  0  0  0  0  0  0
   -5.5403    3.7815   15.5271 C   0  0  0  0  0  0  0  0  0  0  0  0
   -6.4568    4.1043   16.5654 C   0  0  0  0  0  0  0  0  0  0  0  0
   -7.8537    4.1123   16.3041 C   0  0  0  0  0  0  0  0  0  0  0  0
   -8.3374    3.7842   14.9990 C   0  0  0  0  0  0  0  0  0  0  0  0
   -7.4321    3.4651   13.9703 C   0  0  0  0  0  0  0  0  0  0  0  0
  -10.4717    3.8890   15.0308 H   0  0  0  0  0  0  0  0  0  0  0  0
    4.3118    3.1386   17.1586 H   0  0  0  0  0  0  0  0  0  0  0  0
    4.4149    1.7190   16.2640 H   0  0  0  0  0  0  0  0  0  0  0  0
   -1.4846    0.1437   16.1666 H   0  0  0  0  0  0  0  0  0  0  0  0
    3.8587    0.9750   20.2115 H   0  0  0  0  0  0  0  0  0  0  0  0
  1  6  1  0
  1 32  1  0
  1 33  1  0
  2  4  1  0
  2  6  1  0
  3  7  1  0
  3 20  1  0
  4  5  1  0
  5 21  1  0
  7  8  1  0
  7 34  1  0
  8  9  1  0
  9 10  1  0
 10 11  1  0
 10 12  1  0
 11 13  1  0
 12 14  1  0
 13 15  1  0
 14 15  1  0
 15 35  1  0
 16 18  2  0
 16 22  1  0
 17 23  1  0
 17 29  1  0
 17 31  1  0
 18 19  1  0
 18 26  1  0
 19 20  2  0
 20 21  1  0
 21 22  2  0
 23 24  2  0
 24 30  1  0
 25 26  2  0
 25 30  1  0
 26 27  1  0
 27 28  2  0
 28 29  1  0
 29 30  2  0
M  END
>  <CHROM.0>  (74) 
-52.81971823,74.90375052,-58.58216809

>  <CHROM.1>  (74) 
70.40443263,58.29418244,-179.14271036,-172.66296727,-106.17061300,-176.38363113
76.44645853,167.46275598,-70.35434543,-144.39725683,140.96308846,-1.74855722
2.40227281,16.10768982,-0.29490151,-0.22540386,-0.14424661

>  <Name>  (74) 
1uts_h

>  <RI>  (74) 
3.0543e+07

>  <Rbt.Current_Directory>  (74) 
/home/jta30/NA_complexes/1uts

>  <Rbt.Executable>  (74) 
rbdock ($Id: //depot/dev/client3/rdock/2013.1/src/exe/rbdock.cxx#4 $)

>  <Rbt.Library>  (74) 
libRbt.so (2013.1, Build901 2013/11/27)

>  <Rbt.Parameter_File>  (74) 
/software/dev_tools/swtree/cs400_centos7.2_pe2016-08/rdock/2013.1/centos7.2_conda/build/data/scripts/dock.prm

>  <Rbt.Receptor>  (74) 
1uts.prm

>  <SCORE>  (74) 
-11.3418

>  <SCORE.INTER>  (74) 
-10.6626

>  <SCORE.INTER.CONST>  (74) 
1

>  <SCORE.INTER.POLAR>  (74) 
0

>  <SCORE.INTER.REPUL>  (74) 
0

>  <SCORE.INTER.ROT>  (74) 
11

>  <SCORE.INTER.VDW>  (74) 
-27.0626

>  <SCORE.INTER.norm>  (74) 
-0.355419

>  <SCORE.INTRA>  (74) 
-6.57154

>  <SCORE.INTRA.DIHEDRAL>  (74) 
-6.11461

>  <SCORE.INTRA.DIHEDRAL.0>  (74) 
14.7121

>  <SCORE.INTRA.POLAR>  (74) 
0

>  <SCORE.INTRA.POLAR.0>  (74) 
0

>  <SCORE.INTRA.REPUL>  (74) 
0

>  <SCORE.INTRA.REPUL.0>  (74) 
0

>  <SCORE.INTRA.VDW>  (74) 
-3.51424

>  <SCORE.INTRA.VDW.0>  (74) 
-0.649219

>  <SCORE.INTRA.norm>  (74) 
-0.219051

>  <SCORE.RESTR>  (74) 
0

>  <SCORE.RESTR.CAVITY>  (74) 
0

>  <SCORE.RESTR.norm>  (74) 
0

>  <SCORE.SYSTEM>  (74) 
5.89236

>  <SCORE.SYSTEM.CONST>  (74) 
0

>  <SCORE.SYSTEM.DIHEDRAL>  (74) 
1.52212

>  <SCORE.SYSTEM.POLAR>  (74) 
-0.0912063

>  <SCORE.SYSTEM.REPUL>  (74) 
0.484493

>  <SCORE.SYSTEM.VDW>  (74) 
3.01893

>  <SCORE.SYSTEM.norm>  (74) 
0.196412

>  <SCORE.heavy>  (74) 
30

>  <SCORE.norm>  (74) 
-0.378058

>  <pdb_header>  (74) 
CRYST1    1.000    1.000    1.000  90.00  90.00  90.00 P 1           1

>  <Predicted_Rank>  (74) 
75.0

$$$$
1uts_h
     RDKit          3D

 35 38  0  0  0  0  0  0  0  0999 V2000
   -6.2205    1.1908   15.1083 N   0  0  0  0  0  0  0  0  0  0  0  0
   -6.7553    3.5796   14.8965 C   0  0  0  0  0  0  0  0  0  0  0  0
   -2.0529    2.7655   14.6852 C   0  0  0  0  0  0  0  0  0  0  0  0
   -5.3237    4.0790   15.1122 C   0  0  0  0  0  0  0  0  0  0  0  0
   -4.6440    3.1987   16.0193 O   0  0  0  0  0  0  0  0  0  0  0  0
   -6.7233    2.2285   14.1799 C   0  0  0  0  0  0  0  0  0  0  0  0
   -1.1447    3.4053   13.7065 N   0  0  0  0  0  0  0  0  0  0  0  0
   -1.8858    4.4396   12.9371 C   0  0  0  0  0  0  0  0  0  0  0  0
   -2.8376    3.7643   11.9453 C   0  0  0  0  0  0  0  0  0  0  0  0
   -3.6961    4.7894   11.3105 N   0  0  0  0  0  0  0  0  0  0  0  0
   -4.8224    4.1175   10.6007 C   0  0  0  0  0  0  0  0  0  0  0  0
   -2.8827    5.5914   10.3534 C   0  0  0  0  0  0  0  0  0  0  0  0
   -5.7143    5.1791    9.9368 C   0  0  0  0  0  0  0  0  0  0  0  0
   -3.7756    6.6523    9.6851 C   0  0  0  0  0  0  0  0  0  0  0  0
   -4.9016    5.9807    8.9785 N   0  0  0  0  0  0  0  0  0  0  0  0
   -2.4327    5.2885   18.2496 C   0  0  0  0  0  0  0  0  0  0  0  0
    3.5158    7.4016   19.7388 N   0  0  0  0  0  0  0  0  0  0  0  0
   -1.1664    5.0914   17.6490 C   0  0  0  0  0  0  0  0  0  0  0  0
   -1.0503    4.2723   16.4944 C   0  0  0  0  0  0  0  0  0  0  0  0
   -2.2025    3.6520   15.9381 C   0  0  0  0  0  0  0  0  0  0  0  0
   -3.4760    3.8389   16.5549 C   0  0  0  0  0  0  0  0  0  0  0  0
   -3.5866    4.6624   17.7087 C   0  0  0  0  0  0  0  0  0  0  0  0
    4.4215    6.4310   19.2534 C   0  0  0  0  0  0  0  0  0  0  0  0
    3.7405    5.4120   18.5494 C   0  0  0  0  0  0  0  0  0  0  0  0
    1.2482    5.1167   18.0345 C   0  0  0  0  0  0  0  0  0  0  0  0
   -0.0346    5.7050   18.2040 C   0  0  0  0  0  0  0  0  0  0  0  0
   -0.1667    6.9200   18.9311 C   0  0  0  0  0  0  0  0  0  0  0  0
    0.9825    7.5458   19.4853 C   0  0  0  0  0  0  0  0  0  0  0  0
    2.2735    6.9587   19.3012 C   0  0  0  0  0  0  0  0  0  0  0  0
    2.4061    5.7565   18.5826 C   0  0  0  0  0  0  0  0  0  0  0  0
    3.7190    8.2081   20.2587 H   0  0  0  0  0  0  0  0  0  0  0  0
   -5.9810    0.3416   14.5773 H   0  0  0  0  0  0  0  0  0  0  0  0
   -5.3809    1.5406   15.5916 H   0  0  0  0  0  0  0  0  0  0  0  0
   -0.7778    2.6906   13.0613 H   0  0  0  0  0  0  0  0  0  0  0  0
   -5.5014    6.6937    8.5393 H   0  0  0  0  0  0  0  0  0  0  0  0
  1  6  1  0
  1 32  1  0
  1 33  1  0
  2  4  1  0
  2  6  1  0
  3  7  1  0
  3 20  1  0
  4  5  1  0
  5 21  1  0
  7  8  1  0
  7 34  1  0
  8  9  1  0
  9 10  1  0
 10 11  1  0
 10 12  1  0
 11 13  1  0
 12 14  1  0
 13 15  1  0
 14 15  1  0
 15 35  1  0
 16 18  2  0
 16 22  1  0
 17 23  1  0
 17 29  1  0
 17 31  1  0
 18 19  1  0
 18 26  1  0
 19 20  2  0
 20 21  1  0
 21 22  2  0
 23 24  2  0
 24 30  1  0
 25 26  2  0
 25 30  1  0
 26 27  1  0
 27 28  2  0
 28 29  1  0
 29 30  2  0
M  END
>  <CHROM.0>  (75) 
-35.99635361,-86.42845945,54.67375443

>  <CHROM.1>  (75) 
-166.31667392,-65.65266014,71.06358203,-80.53655621,-43.00737387,-162.40688302
-93.80906345,-73.10185901,172.67847639,-166.74170548,152.63670862,-2.13062107
4.76865195,15.20708512,2.44284105,-0.49007034,-1.32753561

>  <Name>  (75) 
1uts_h

>  <RI>  (75) 
3.0543e+07

>  <Rbt.Current_Directory>  (75) 
/home/jta30/NA_complexes/1uts

>  <Rbt.Executable>  (75) 
rbdock ($Id: //depot/dev/client3/rdock/2013.1/src/exe/rbdock.cxx#4 $)

>  <Rbt.Library>  (75) 
libRbt.so (2013.1, Build901 2013/11/27)

>  <Rbt.Parameter_File>  (75) 
/software/dev_tools/swtree/cs400_centos7.2_pe2016-08/rdock/2013.1/centos7.2_conda/build/data/scripts/dock.prm

>  <Rbt.Receptor>  (75) 
1uts.prm

>  <SCORE>  (75) 
-7.71482

>  <SCORE.INTER>  (75) 
-10.4395

>  <SCORE.INTER.CONST>  (75) 
1

>  <SCORE.INTER.POLAR>  (75) 
-1.46446

>  <SCORE.INTER.REPUL>  (75) 
0.668098

>  <SCORE.INTER.ROT>  (75) 
11

>  <SCORE.INTER.VDW>  (75) 
-25.2008

>  <SCORE.INTER.norm>  (75) 
-0.347982

>  <SCORE.INTRA>  (75) 
-4.62336

>  <SCORE.INTRA.DIHEDRAL>  (75) 
-5.00811

>  <SCORE.INTRA.DIHEDRAL.0>  (75) 
14.7121

>  <SCORE.INTRA.POLAR>  (75) 
-0.74092

>  <SCORE.INTRA.POLAR.0>  (75) 
0

>  <SCORE.INTRA.REPUL>  (75) 
0

>  <SCORE.INTRA.REPUL.0>  (75) 
0

>  <SCORE.INTRA.VDW>  (75) 
0.399819

>  <SCORE.INTRA.VDW.0>  (75) 
-0.649219

>  <SCORE.INTRA.norm>  (75) 
-0.154112

>  <SCORE.RESTR>  (75) 
0

>  <SCORE.RESTR.CAVITY>  (75) 
0

>  <SCORE.RESTR.norm>  (75) 
0

>  <SCORE.SYSTEM>  (75) 
7.34801

>  <SCORE.SYSTEM.CONST>  (75) 
0

>  <SCORE.SYSTEM.DIHEDRAL>  (75) 
5.69611

>  <SCORE.SYSTEM.POLAR>  (75) 
-1.02924

>  <SCORE.SYSTEM.REPUL>  (75) 
1.1977

>  <SCORE.SYSTEM.VDW>  (75) 
2.01085

>  <SCORE.SYSTEM.norm>  (75) 
0.244934

>  <SCORE.heavy>  (75) 
30

>  <SCORE.norm>  (75) 
-0.257161

>  <pdb_header>  (75) 
CRYST1    1.000    1.000    1.000  90.00  90.00  90.00 P 1           1

>  <Predicted_Rank>  (75) 
76.0

$$$$
1uts_h
     RDKit          3D

 35 38  0  0  0  0  0  0  0  0999 V2000
    6.2542    3.5420   19.7507 N   0  0  0  0  0  0  0  0  0  0  0  0
    4.5821    4.9869   18.6767 C   0  0  0  0  0  0  0  0  0  0  0  0
    2.3588    2.1740   16.2013 C   0  0  0  0  0  0  0  0  0  0  0  0
    3.4107    5.0021   17.6904 C   0  0  0  0  0  0  0  0  0  0  0  0
    2.3031    4.2854   18.2555 O   0  0  0  0  0  0  0  0  0  0  0  0
    5.2160    3.5948   18.6968 C   0  0  0  0  0  0  0  0  0  0  0  0
    1.8242    0.8444   15.8292 N   0  0  0  0  0  0  0  0  0  0  0  0
    0.8844    0.3706   16.8795 C   0  0  0  0  0  0  0  0  0  0  0  0
    1.6435   -0.4635   17.9157 C   0  0  0  0  0  0  0  0  0  0  0  0
    2.6096    0.4001   18.6310 N   0  0  0  0  0  0  0  0  0  0  0  0
    3.6694   -0.4505   19.2452 C   0  0  0  0  0  0  0  0  0  0  0  0
    1.8936    1.1782   19.6812 C   0  0  0  0  0  0  0  0  0  0  0  0
    4.6728    0.4429   19.9925 C   0  0  0  0  0  0  0  0  0  0  0  0
    2.8981    2.0704   20.4326 C   0  0  0  0  0  0  0  0  0  0  0  0
    3.9575    1.2204   21.0438 N   0  0  0  0  0  0  0  0  0  0  0  0
   -0.9085    5.0859   16.4455 C   0  0  0  0  0  0  0  0  0  0  0  0
   -4.9582    3.9306   11.5317 N   0  0  0  0  0  0  0  0  0  0  0  0
   -0.9102    4.0979   15.4321 C   0  0  0  0  0  0  0  0  0  0  0  0
    0.1518    3.1576   15.3584 C   0  0  0  0  0  0  0  0  0  0  0  0
    1.2153    3.2037   16.3012 C   0  0  0  0  0  0  0  0  0  0  0  0
    1.2233    4.2110   17.3123 C   0  0  0  0  0  0  0  0  0  0  0  0
    0.1559    5.1476   17.3831 C   0  0  0  0  0  0  0  0  0  0  0  0
   -4.1269    4.1391   10.4078 C   0  0  0  0  0  0  0  0  0  0  0  0
   -2.7787    4.3013   10.7998 C   0  0  0  0  0  0  0  0  0  0  0  0
   -1.6952    4.2400   13.1206 C   0  0  0  0  0  0  0  0  0  0  0  0
   -1.9614    4.0596   14.5052 C   0  0  0  0  0  0  0  0  0  0  0  0
   -3.2939    3.8335   14.9473 C   0  0  0  0  0  0  0  0  0  0  0  0
   -4.3572    3.7857   14.0057 C   0  0  0  0  0  0  0  0  0  0  0  0
   -4.0844    3.9537   12.6120 C   0  0  0  0  0  0  0  0  0  0  0  0
   -2.7668    4.1781   12.1728 C   0  0  0  0  0  0  0  0  0  0  0  0
   -5.9292    3.7925   11.5452 H   0  0  0  0  0  0  0  0  0  0  0  0
    6.6163    2.5811   19.8285 H   0  0  0  0  0  0  0  0  0  0  0  0
    7.0251    4.1795   19.5052 H   0  0  0  0  0  0  0  0  0  0  0  0
    2.6029    0.1762   15.7345 H   0  0  0  0  0  0  0  0  0  0  0  0
    4.6321    1.8210   21.5389 H   0  0  0  0  0  0  0  0  0  0  0  0
  1  6  1  0
  1 32  1  0
  1 33  1  0
  2  4  1  0
  2  6  1  0
  3  7  1  0
  3 20  1  0
  4  5  1  0
  5 21  1  0
  7  8  1  0
  7 34  1  0
  8  9  1  0
  9 10  1  0
 10 11  1  0
 10 12  1  0
 11 13  1  0
 12 14  1  0
 13 15  1  0
 14 15  1  0
 15 35  1  0
 16 18  2  0
 16 22  1  0
 17 23  1  0
 17 29  1  0
 17 31  1  0
 18 19  1  0
 18 26  1  0
 19 20  2  0
 20 21  1  0
 21 22  2  0
 23 24  2  0
 24 30  1  0
 25 26  2  0
 25 30  1  0
 26 27  1  0
 27 28  2  0
 28 29  1  0
 29 30  2  0
M  END
>  <CHROM.0>  (76) 
-37.47719398,-88.21790420,-55.63405290

>  <CHROM.1>  (76) 
174.44478840,73.61553019,-174.13774286,-61.65827323,-38.85346474,-176.21725082
83.02639489,-91.69107486,65.38536724,-159.11657504,118.71535229,0.84043684
2.94111077,16.54370012,-0.35705641,-0.69578045,-0.23036057

>  <Name>  (76) 
1uts_h

>  <RI>  (76) 
3.0543e+07

>  <Rbt.Current_Directory>  (76) 
/home/jta30/NA_complexes/1uts

>  <Rbt.Executable>  (76) 
rbdock ($Id: //depot/dev/client3/rdock/2013.1/src/exe/rbdock.cxx#4 $)

>  <Rbt.Library>  (76) 
libRbt.so (2013.1, Build901 2013/11/27)

>  <Rbt.Parameter_File>  (76) 
/software/dev_tools/swtree/cs400_centos7.2_pe2016-08/rdock/2013.1/centos7.2_conda/build/data/scripts/dock.prm

>  <Rbt.Receptor>  (76) 
1uts.prm

>  <SCORE>  (76) 
-4.63019

>  <SCORE.INTER>  (76) 
-4.872

>  <SCORE.INTER.CONST>  (76) 
1

>  <SCORE.INTER.POLAR>  (76) 
0

>  <SCORE.INTER.REPUL>  (76) 
0

>  <SCORE.INTER.ROT>  (76) 
11

>  <SCORE.INTER.VDW>  (76) 
-21.272

>  <SCORE.INTER.norm>  (76) 
-0.1624

>  <SCORE.INTRA>  (76) 
-5.28089

>  <SCORE.INTRA.DIHEDRAL>  (76) 
-5.7195

>  <SCORE.INTRA.DIHEDRAL.0>  (76) 
14.7121

>  <SCORE.INTRA.POLAR>  (76) 
0

>  <SCORE.INTRA.POLAR.0>  (76) 
0

>  <SCORE.INTRA.REPUL>  (76) 
0

>  <SCORE.INTRA.REPUL.0>  (76) 
0

>  <SCORE.INTRA.VDW>  (76) 
-2.42114

>  <SCORE.INTRA.VDW.0>  (76) 
-0.649219

>  <SCORE.INTRA.norm>  (76) 
-0.17603

>  <SCORE.RESTR>  (76) 
0

>  <SCORE.RESTR.CAVITY>  (76) 
0

>  <SCORE.RESTR.norm>  (76) 
0

>  <SCORE.SYSTEM>  (76) 
5.52271

>  <SCORE.SYSTEM.CONST>  (76) 
0

>  <SCORE.SYSTEM.DIHEDRAL>  (76) 
5.72203

>  <SCORE.SYSTEM.POLAR>  (76) 
-1.02982

>  <SCORE.SYSTEM.REPUL>  (76) 
0.879351

>  <SCORE.SYSTEM.VDW>  (76) 
1.76633

>  <SCORE.SYSTEM.norm>  (76) 
0.18409

>  <SCORE.heavy>  (76) 
30

>  <SCORE.norm>  (76) 
-0.15434

>  <pdb_header>  (76) 
CRYST1    1.000    1.000    1.000  90.00  90.00  90.00 P 1           1

>  <Predicted_Rank>  (76) 
77.0

$$$$
1uts_h
     RDKit          3D

 35 38  0  0  0  0  0  0  0  0999 V2000
    4.3974    6.8314   19.3564 N   0  0  0  0  0  0  0  0  0  0  0  0
    2.0936    6.6353   20.1877 C   0  0  0  0  0  0  0  0  0  0  0  0
    2.1816    4.4666   16.3099 C   0  0  0  0  0  0  0  0  0  0  0  0
    1.4841    6.3338   18.8155 C   0  0  0  0  0  0  0  0  0  0  0  0
    0.8245    5.0599   18.8570 O   0  0  0  0  0  0  0  0  0  0  0  0
    3.2964    7.5654   20.0200 C   0  0  0  0  0  0  0  0  0  0  0  0
    2.6169    3.0860   16.6204 N   0  0  0  0  0  0  0  0  0  0  0  0
    2.7832    2.9318   18.0900 C   0  0  0  0  0  0  0  0  0  0  0  0
    4.0746    2.1642   18.3873 C   0  0  0  0  0  0  0  0  0  0  0  0
    4.0545    0.8696   17.6700 N   0  0  0  0  0  0  0  0  0  0  0  0
    3.2359   -0.1087   18.4425 C   0  0  0  0  0  0  0  0  0  0  0  0
    5.4497    0.3703   17.5121 C   0  0  0  0  0  0  0  0  0  0  0  0
    3.2158   -1.4559   17.7023 C   0  0  0  0  0  0  0  0  0  0  0  0
    5.4306   -0.9805   16.7743 C   0  0  0  0  0  0  0  0  0  0  0  0
    4.6109   -1.9563   17.5452 N   0  0  0  0  0  0  0  0  0  0  0  0
   -2.1801    4.8008   16.5904 C   0  0  0  0  0  0  0  0  0  0  0  0
   -4.5498    3.9242   10.6161 N   0  0  0  0  0  0  0  0  0  0  0  0
   -1.5657    4.5322   15.3440 C   0  0  0  0  0  0  0  0  0  0  0  0
   -0.1518    4.4257   15.2600 C   0  0  0  0  0  0  0  0  0  0  0  0
    0.6484    4.5848   16.4246 C   0  0  0  0  0  0  0  0  0  0  0  0
    0.0278    4.8717   17.6775 C   0  0  0  0  0  0  0  0  0  0  0  0
   -1.3881    4.9742   17.7561 C   0  0  0  0  0  0  0  0  0  0  0  0
   -3.5148    4.2551    9.7122 C   0  0  0  0  0  0  0  0  0  0  0  0
   -2.3251    4.5789   10.4031 C   0  0  0  0  0  0  0  0  0  0  0  0
   -1.8075    4.6143   12.9120 C   0  0  0  0  0  0  0  0  0  0  0  0
   -2.3610    4.3780   14.1998 C   0  0  0  0  0  0  0  0  0  0  0  0
   -3.7200    3.9783   14.3247 C   0  0  0  0  0  0  0  0  0  0  0  0
   -4.5226    3.8134   13.1636 C   0  0  0  0  0  0  0  0  0  0  0  0
   -3.9590    4.0385   11.8687 C   0  0  0  0  0  0  0  0  0  0  0  0
   -2.6148    4.4345   11.7431 C   0  0  0  0  0  0  0  0  0  0  0  0
   -5.4722    3.6648   10.4066 H   0  0  0  0  0  0  0  0  0  0  0  0
    5.0074    7.4989   18.8635 H   0  0  0  0  0  0  0  0  0  0  0  0
    4.9470    6.3238   20.0643 H   0  0  0  0  0  0  0  0  0  0  0  0
    3.5129    2.8949   16.1488 H   0  0  0  0  0  0  0  0  0  0  0  0
    4.5936   -2.8565   17.0448 H   0  0  0  0  0  0  0  0  0  0  0  0
  1  6  1  0
  1 32  1  0
  1 33  1  0
  2  4  1  0
  2  6  1  0
  3  7  1  0
  3 20  1  0
  4  5  1  0
  5 21  1  0
  7  8  1  0
  7 34  1  0
  8  9  1  0
  9 10  1  0
 10 11  1  0
 10 12  1  0
 11 13  1  0
 12 14  1  0
 13 15  1  0
 14 15  1  0
 15 35  1  0
 16 18  2  0
 16 22  1  0
 17 23  1  0
 17 29  1  0
 17 31  1  0
 18 19  1  0
 18 26  1  0
 19 20  2  0
 20 21  1  0
 21 22  2  0
 23 24  2  0
 24 30  1  0
 25 26  2  0
 25 30  1  0
 26 27  1  0
 27 28  2  0
 28 29  1  0
 29 30  2  0
M  END
>  <CHROM.0>  (77) 
59.50351713,66.28577725,49.92678895

>  <CHROM.1>  (77) 
154.33840988,153.16912500,-69.28068566,-85.34191112,-94.36873350,168.71267207
74.01352823,-136.44258047,-55.52575310,-80.73292827,156.08695902,0.73736528
3.54694235,16.16479584,0.13969357,-0.72001697,0.56948667

>  <Name>  (77) 
1uts_h

>  <RI>  (77) 
3.0543e+07

>  <Rbt.Current_Directory>  (77) 
/home/jta30/NA_complexes/1uts

>  <Rbt.Executable>  (77) 
rbdock ($Id: //depot/dev/client3/rdock/2013.1/src/exe/rbdock.cxx#4 $)

>  <Rbt.Library>  (77) 
libRbt.so (2013.1, Build901 2013/11/27)

>  <Rbt.Parameter_File>  (77) 
/software/dev_tools/swtree/cs400_centos7.2_pe2016-08/rdock/2013.1/centos7.2_conda/build/data/scripts/dock.prm

>  <Rbt.Receptor>  (77) 
1uts.prm

>  <SCORE>  (77) 
-9.36428

>  <SCORE.INTER>  (77) 
-11.5261

>  <SCORE.INTER.CONST>  (77) 
1

>  <SCORE.INTER.POLAR>  (77) 
-0.866937

>  <SCORE.INTER.REPUL>  (77) 
0

>  <SCORE.INTER.ROT>  (77) 
11

>  <SCORE.INTER.VDW>  (77) 
-24.9785

>  <SCORE.INTER.norm>  (77) 
-0.384203

>  <SCORE.INTRA>  (77) 
-0.876672

>  <SCORE.INTRA.DIHEDRAL>  (77) 
-0.779587

>  <SCORE.INTRA.DIHEDRAL.0>  (77) 
14.7121

>  <SCORE.INTRA.POLAR>  (77) 
0

>  <SCORE.INTRA.POLAR.0>  (77) 
0

>  <SCORE.INTRA.REPUL>  (77) 
0

>  <SCORE.INTRA.REPUL.0>  (77) 
0

>  <SCORE.INTRA.VDW>  (77) 
-0.486878

>  <SCORE.INTRA.VDW.0>  (77) 
-0.649219

>  <SCORE.INTRA.norm>  (77) 
-0.0292224

>  <SCORE.RESTR>  (77) 
0

>  <SCORE.RESTR.CAVITY>  (77) 
0

>  <SCORE.RESTR.norm>  (77) 
0

>  <SCORE.SYSTEM>  (77) 
3.03849

>  <SCORE.SYSTEM.CONST>  (77) 
0

>  <SCORE.SYSTEM.DIHEDRAL>  (77) 
0.909547

>  <SCORE.SYSTEM.POLAR>  (77) 
-0.0935903

>  <SCORE.SYSTEM.REPUL>  (77) 
0.7663

>  <SCORE.SYSTEM.VDW>  (77) 
-0.929578

>  <SCORE.SYSTEM.norm>  (77) 
0.101283

>  <SCORE.heavy>  (77) 
30

>  <SCORE.norm>  (77) 
-0.312143

>  <pdb_header>  (77) 
CRYST1    1.000    1.000    1.000  90.00  90.00  90.00 P 1           1

>  <Predicted_Rank>  (77) 
78.0

$$$$
1uts_h
     RDKit          3D

 35 38  0  0  0  0  0  0  0  0999 V2000
    3.3507    4.0030   18.3863 N   0  0  0  0  0  0  0  0  0  0  0  0
    3.1765    3.9558   15.9359 C   0  0  0  0  0  0  0  0  0  0  0  0
   -0.4166    1.0396   15.8620 C   0  0  0  0  0  0  0  0  0  0  0  0
    1.6533    4.1121   15.9613 C   0  0  0  0  0  0  0  0  0  0  0  0
    1.0808    3.3755   14.8707 O   0  0  0  0  0  0  0  0  0  0  0  0
    3.7848    4.6755   17.1410 C   0  0  0  0  0  0  0  0  0  0  0  0
    0.8821    1.3559   16.4987 N   0  0  0  0  0  0  0  0  0  0  0  0
    1.6361    0.0992   16.7496 C   0  0  0  0  0  0  0  0  0  0  0  0
    3.0943    0.4279   17.0832 C   0  0  0  0  0  0  0  0  0  0  0  0
    3.7353   -0.7521   17.7058 N   0  0  0  0  0  0  0  0  0  0  0  0
    4.1057   -0.4260   19.1130 C   0  0  0  0  0  0  0  0  0  0  0  0
    4.9465   -1.1271   16.9227 C   0  0  0  0  0  0  0  0  0  0  0  0
    4.7754   -1.6482   19.7618 C   0  0  0  0  0  0  0  0  0  0  0  0
    5.6201   -2.3486   17.5737 C   0  0  0  0  0  0  0  0  0  0  0  0
    5.9875   -2.0230   18.9798 N   0  0  0  0  0  0  0  0  0  0  0  0
   -2.4371    4.6941   14.5288 C   0  0  0  0  0  0  0  0  0  0  0  0
   -8.8126    3.7779   14.8276 N   0  0  0  0  0  0  0  0  0  0  0  0
   -3.1941    3.5871   14.9813 C   0  0  0  0  0  0  0  0  0  0  0  0
   -2.5331    2.4058   15.4115 C   0  0  0  0  0  0  0  0  0  0  0  0
   -1.1132    2.3326   15.3920 C   0  0  0  0  0  0  0  0  0  0  0  0
   -0.3523    3.4441   14.9199 C   0  0  0  0  0  0  0  0  0  0  0  0
   -1.0194    4.6251   14.4934 C   0  0  0  0  0  0  0  0  0  0  0  0
   -8.9662    3.3361   13.4938 C   0  0  0  0  0  0  0  0  0  0  0  0
   -7.7093    3.1044   12.8904 C   0  0  0  0  0  0  0  0  0  0  0  0
   -5.3375    3.3288   13.8329 C   0  0  0  0  0  0  0  0  0  0  0  0
   -4.5938    3.6661   14.9964 C   0  0  0  0  0  0  0  0  0  0  0  0
   -5.2721    4.0767   16.1769 C   0  0  0  0  0  0  0  0  0  0  0  0
   -6.6913    4.1475   16.1937 C   0  0  0  0  0  0  0  0  0  0  0  0
   -7.4373    3.7941   15.0259 C   0  0  0  0  0  0  0  0  0  0  0  0
   -6.7679    3.3882   13.8569 C   0  0  0  0  0  0  0  0  0  0  0  0
   -9.5166    4.0114   15.4694 H   0  0  0  0  0  0  0  0  0  0  0  0
    3.7557    3.0568   18.4250 H   0  0  0  0  0  0  0  0  0  0  0  0
    3.6724    4.5465   19.1999 H   0  0  0  0  0  0  0  0  0  0  0  0
    0.7165    1.8443   17.3908 H   0  0  0  0  0  0  0  0  0  0  0  0
    6.4306   -2.8449   19.4148 H   0  0  0  0  0  0  0  0  0  0  0  0
  1  6  1  0
  1 32  1  0
  1 33  1  0
  2  4  1  0
  2  6  1  0
  3  7  1  0
  3 20  1  0
  4  5  1  0
  5 21  1  0
  7  8  1  0
  7 34  1  0
  8  9  1  0
  9 10  1  0
 10 11  1  0
 10 12  1  0
 11 13  1  0
 12 14  1  0
 13 15  1  0
 14 15  1  0
 15 35  1  0
 16 18  2  0
 16 22  1  0
 17 23  1  0
 17 29  1  0
 17 31  1  0
 18 19  1  0
 18 26  1  0
 19 20  2  0
 20 21  1  0
 21 22  2  0
 23 24  2  0
 24 30  1  0
 25 26  2  0
 25 30  1  0
 26 27  1  0
 27 28  2  0
 28 29  1  0
 29 30  2  0
M  END
>  <CHROM.0>  (78) 
60.00799644,-88.94945408,54.33206039

>  <CHROM.1>  (78) 
66.31638387,-176.89929266,65.36925680,-171.05544568,-147.39874403,176.67495975
-103.22138851,166.26763708,163.71847101,-115.20585586,86.72190877,-0.53372646
2.19378043,16.09372462,-0.38498711,-0.21250721,-0.25692341

>  <Name>  (78) 
1uts_h

>  <RI>  (78) 
3.0543e+07

>  <Rbt.Current_Directory>  (78) 
/home/jta30/NA_complexes/1uts

>  <Rbt.Executable>  (78) 
rbdock ($Id: //depot/dev/client3/rdock/2013.1/src/exe/rbdock.cxx#4 $)

>  <Rbt.Library>  (78) 
libRbt.so (2013.1, Build901 2013/11/27)

>  <Rbt.Parameter_File>  (78) 
/software/dev_tools/swtree/cs400_centos7.2_pe2016-08/rdock/2013.1/centos7.2_conda/build/data/scripts/dock.prm

>  <Rbt.Receptor>  (78) 
1uts.prm

>  <SCORE>  (78) 
-7.65285

>  <SCORE.INTER>  (78) 
-9.43098

>  <SCORE.INTER.CONST>  (78) 
1

>  <SCORE.INTER.POLAR>  (78) 
0

>  <SCORE.INTER.REPUL>  (78) 
0.0373176

>  <SCORE.INTER.ROT>  (78) 
11

>  <SCORE.INTER.VDW>  (78) 
-26.0176

>  <SCORE.INTER.norm>  (78) 
-0.314366

>  <SCORE.INTRA>  (78) 
-4.6805

>  <SCORE.INTRA.DIHEDRAL>  (78) 
-4.6742

>  <SCORE.INTRA.DIHEDRAL.0>  (78) 
14.7121

>  <SCORE.INTRA.POLAR>  (78) 
0

>  <SCORE.INTRA.POLAR.0>  (78) 
0

>  <SCORE.INTRA.REPUL>  (78) 
0.0203194

>  <SCORE.INTRA.REPUL.0>  (78) 
0

>  <SCORE.INTRA.VDW>  (78) 
-2.445

>  <SCORE.INTRA.VDW.0>  (78) 
-0.649219

>  <SCORE.INTRA.norm>  (78) 
-0.156017

>  <SCORE.RESTR>  (78) 
0

>  <SCORE.RESTR.CAVITY>  (78) 
0

>  <SCORE.RESTR.norm>  (78) 
0

>  <SCORE.SYSTEM>  (78) 
6.45863

>  <SCORE.SYSTEM.CONST>  (78) 
0

>  <SCORE.SYSTEM.DIHEDRAL>  (78) 
3.73161

>  <SCORE.SYSTEM.POLAR>  (78) 
-0.895984

>  <SCORE.SYSTEM.REPUL>  (78) 
1.27443

>  <SCORE.SYSTEM.VDW>  (78) 
1.26701

>  <SCORE.SYSTEM.norm>  (78) 
0.215288

>  <SCORE.heavy>  (78) 
30

>  <SCORE.norm>  (78) 
-0.255095

>  <pdb_header>  (78) 
CRYST1    1.000    1.000    1.000  90.00  90.00  90.00 P 1           1

>  <Predicted_Rank>  (78) 
79.0

$$$$
1uts_h
     RDKit          3D

 35 38  0  0  0  0  0  0  0  0999 V2000
    5.6639    3.4725   17.8875 N   0  0  0  0  0  0  0  0  0  0  0  0
    4.3471    5.3037   18.8622 C   0  0  0  0  0  0  0  0  0  0  0  0
    2.5904    2.6271   15.9873 C   0  0  0  0  0  0  0  0  0  0  0  0
    3.2295    5.2429   17.8169 C   0  0  0  0  0  0  0  0  0  0  0  0
    2.1707    4.4033   18.3004 O   0  0  0  0  0  0  0  0  0  0  0  0
    4.9124    3.9004   19.0890 C   0  0  0  0  0  0  0  0  0  0  0  0
    2.4578    1.2966   16.6231 N   0  0  0  0  0  0  0  0  0  0  0  0
    3.7798    0.6162   16.6414 C   0  0  0  0  0  0  0  0  0  0  0  0
    3.7059   -0.6355   17.5208 C   0  0  0  0  0  0  0  0  0  0  0  0
    3.4241   -0.2393   18.9188 N   0  0  0  0  0  0  0  0  0  0  0  0
    4.6919    0.1959   19.5723 C   0  0  0  0  0  0  0  0  0  0  0  0
    2.8321   -1.3950   19.6501 C   0  0  0  0  0  0  0  0  0  0  0  0
    4.4038    0.6045   21.0260 C   0  0  0  0  0  0  0  0  0  0  0  0
    2.5466   -0.9882   21.1070 C   0  0  0  0  0  0  0  0  0  0  0  0
    3.8129   -0.5514   21.7583 N   0  0  0  0  0  0  0  0  0  0  0  0
   -1.0972    4.9422   16.4941 C   0  0  0  0  0  0  0  0  0  0  0  0
   -5.1736    3.8448   11.6816 N   0  0  0  0  0  0  0  0  0  0  0  0
   -0.9273    4.1139   15.3590 C   0  0  0  0  0  0  0  0  0  0  0  0
    0.2703    3.3668   15.2007 C   0  0  0  0  0  0  0  0  0  0  0  0
    1.2979    3.4457   16.1804 C   0  0  0  0  0  0  0  0  0  0  0  0
    1.1313    4.2941   17.3160 C   0  0  0  0  0  0  0  0  0  0  0  0
   -0.0709    5.0373   17.4707 C   0  0  0  0  0  0  0  0  0  0  0  0
   -6.2089    3.6498   12.6238 C   0  0  0  0  0  0  0  0  0  0  0  0
   -5.6924    3.5971   13.9384 C   0  0  0  0  0  0  0  0  0  0  0  0
   -3.2902    3.8258   14.7992 C   0  0  0  0  0  0  0  0  0  0  0  0
   -1.9442    4.0423   14.3966 C   0  0  0  0  0  0  0  0  0  0  0  0
   -1.6325    4.1930   13.0174 C   0  0  0  0  0  0  0  0  0  0  0  0
   -2.6655    4.1294   12.0435 C   0  0  0  0  0  0  0  0  0  0  0  0
   -4.0204    3.9254   12.4528 C   0  0  0  0  0  0  0  0  0  0  0  0
   -4.3307    3.7755   13.8169 C   0  0  0  0  0  0  0  0  0  0  0  0
   -5.2523    3.9157   10.7065 H   0  0  0  0  0  0  0  0  0  0  0  0
    6.0883    2.5499   18.0583 H   0  0  0  0  0  0  0  0  0  0  0  0
    5.0215    3.4105   17.0850 H   0  0  0  0  0  0  0  0  0  0  0  0
    1.7833    0.7281   16.0906 H   0  0  0  0  0  0  0  0  0  0  0  0
    3.6169   -0.2723   22.7303 H   0  0  0  0  0  0  0  0  0  0  0  0
  1  6  1  0
  1 32  1  0
  1 33  1  0
  2  4  1  0
  2  6  1  0
  3  7  1  0
  3 20  1  0
  4  5  1  0
  5 21  1  0
  7  8  1  0
  7 34  1  0
  8  9  1  0
  9 10  1  0
 10 11  1  0
 10 12  1  0
 11 13  1  0
 12 14  1  0
 13 15  1  0
 14 15  1  0
 15 35  1  0
 16 18  2  0
 16 22  1  0
 17 23  1  0
 17 29  1  0
 17 31  1  0
 18 19  1  0
 18 26  1  0
 19 20  2  0
 20 21  1  0
 21 22  2  0
 23 24  2  0
 24 30  1  0
 25 26  2  0
 25 30  1  0
 26 27  1  0
 27 28  2  0
 28 29  1  0
 29 30  2  0
M  END
>  <CHROM.0>  (79) 
-179.03251356,65.13633488,50.55208723

>  <CHROM.1>  (79) 
176.91542040,61.45097297,69.85696600,-170.01589434,-90.74203243,-178.00133014
76.96571112,169.56973059,-63.74573916,-81.09087627,-48.56769449,0.89563534
2.71378907,16.73441227,-0.48558411,-0.54786631,-0.34797384

>  <Name>  (79) 
1uts_h

>  <RI>  (79) 
3.0543e+07

>  <Rbt.Current_Directory>  (79) 
/home/jta30/NA_complexes/1uts

>  <Rbt.Executable>  (79) 
rbdock ($Id: //depot/dev/client3/rdock/2013.1/src/exe/rbdock.cxx#4 $)

>  <Rbt.Library>  (79) 
libRbt.so (2013.1, Build901 2013/11/27)

>  <Rbt.Parameter_File>  (79) 
/software/dev_tools/swtree/cs400_centos7.2_pe2016-08/rdock/2013.1/centos7.2_conda/build/data/scripts/dock.prm

>  <Rbt.Receptor>  (79) 
1uts.prm

>  <SCORE>  (79) 
-10.3057

>  <SCORE.INTER>  (79) 
-7.17279

>  <SCORE.INTER.CONST>  (79) 
1

>  <SCORE.INTER.POLAR>  (79) 
0

>  <SCORE.INTER.REPUL>  (79) 
0

>  <SCORE.INTER.ROT>  (79) 
11

>  <SCORE.INTER.VDW>  (79) 
-23.5728

>  <SCORE.INTER.norm>  (79) 
-0.239093

>  <SCORE.INTRA>  (79) 
-5.92941

>  <SCORE.INTRA.DIHEDRAL>  (79) 
-7.12298

>  <SCORE.INTRA.DIHEDRAL.0>  (79) 
14.7121

>  <SCORE.INTRA.POLAR>  (79) 
0

>  <SCORE.INTRA.POLAR.0>  (79) 
0

>  <SCORE.INTRA.REPUL>  (79) 
0

>  <SCORE.INTRA.REPUL.0>  (79) 
0

>  <SCORE.INTRA.VDW>  (79) 
-2.36792

>  <SCORE.INTRA.VDW.0>  (79) 
-0.649219

>  <SCORE.INTRA.norm>  (79) 
-0.197647

>  <SCORE.RESTR>  (79) 
0

>  <SCORE.RESTR.CAVITY>  (79) 
0

>  <SCORE.RESTR.norm>  (79) 
0

>  <SCORE.SYSTEM>  (79) 
2.79649

>  <SCORE.SYSTEM.CONST>  (79) 
0

>  <SCORE.SYSTEM.DIHEDRAL>  (79) 
0.794445

>  <SCORE.SYSTEM.POLAR>  (79) 
-0.181385

>  <SCORE.SYSTEM.REPUL>  (79) 
0.769606

>  <SCORE.SYSTEM.VDW>  (79) 
-0.832055

>  <SCORE.SYSTEM.norm>  (79) 
0.0932162

>  <SCORE.heavy>  (79) 
30

>  <SCORE.norm>  (79) 
-0.343524

>  <pdb_header>  (79) 
CRYST1    1.000    1.000    1.000  90.00  90.00  90.00 P 1           1

>  <Predicted_Rank>  (79) 
80.0

$$$$
1uts_h
     RDKit          3D

 35 38  0  0  0  0  0  0  0  0999 V2000
    4.6212    3.6518   15.9004 N   0  0  0  0  0  0  0  0  0  0  0  0
    3.5692    4.2455   18.0401 C   0  0  0  0  0  0  0  0  0  0  0  0
    0.0497    1.1446   17.1864 C   0  0  0  0  0  0  0  0  0  0  0  0
    2.1251    4.2090   17.5317 C   0  0  0  0  0  0  0  0  0  0  0  0
    2.0120    3.2290   16.4893 O   0  0  0  0  0  0  0  0  0  0  0  0
    4.4947    4.7195   16.9180 C   0  0  0  0  0  0  0  0  0  0  0  0
    0.6823    0.0136   16.4704 N   0  0  0  0  0  0  0  0  0  0  0  0
    0.0666   -1.2659   16.9118 C   0  0  0  0  0  0  0  0  0  0  0  0
    0.9225   -2.4436   16.4364 C   0  0  0  0  0  0  0  0  0  0  0  0
    1.7306   -2.9532   17.5669 N   0  0  0  0  0  0  0  0  0  0  0  0
    2.9107   -2.0641   17.7689 C   0  0  0  0  0  0  0  0  0  0  0  0
    2.1729   -4.3451   17.2702 C   0  0  0  0  0  0  0  0  0  0  0  0
    3.7546   -2.5926   18.9401 C   0  0  0  0  0  0  0  0  0  0  0  0
    3.0213   -4.8741   18.4407 C   0  0  0  0  0  0  0  0  0  0  0  0
    4.1983   -3.9842   18.6434 N   0  0  0  0  0  0  0  0  0  0  0  0
   -0.9001    4.3795   14.3850 C   0  0  0  0  0  0  0  0  0  0  0  0
   -7.0213    3.6205   12.4463 N   0  0  0  0  0  0  0  0  0  0  0  0
   -1.8652    3.3870   14.6796 C   0  0  0  0  0  0  0  0  0  0  0  0
   -1.5508    2.3413   15.5880 C   0  0  0  0  0  0  0  0  0  0  0  0
   -0.2706    2.2898   16.2047 C   0  0  0  0  0  0  0  0  0  0  0  0
    0.7068    3.2824   15.8936 C   0  0  0  0  0  0  0  0  0  0  0  0
    0.3853    4.3286   14.9860 C   0  0  0  0  0  0  0  0  0  0  0  0
   -7.7396    3.3745   13.6384 C   0  0  0  0  0  0  0  0  0  0  0  0
   -6.8598    3.1791   14.7272 C   0  0  0  0  0  0  0  0  0  0  0  0
   -4.3009    3.2385   14.8381 C   0  0  0  0  0  0  0  0  0  0  0  0
   -3.1248    3.4436   14.0666 C   0  0  0  0  0  0  0  0  0  0  0  0
   -3.2285    3.7128   12.6741 C   0  0  0  0  0  0  0  0  0  0  0  0
   -4.5063    3.7790   12.0557 C   0  0  0  0  0  0  0  0  0  0  0  0
   -5.6882    3.5860   12.8373 C   0  0  0  0  0  0  0  0  0  0  0  0
   -5.5876    3.3190   14.2150 C   0  0  0  0  0  0  0  0  0  0  0  0
   -7.3819    3.7862   11.5493 H   0  0  0  0  0  0  0  0  0  0  0  0
    5.1632    2.8678   16.2905 H   0  0  0  0  0  0  0  0  0  0  0  0
    3.6835    3.3201   15.6328 H   0  0  0  0  0  0  0  0  0  0  0  0
    1.6922    0.0004   16.6747 H   0  0  0  0  0  0  0  0  0  0  0  0
    4.7593   -4.3364   19.4322 H   0  0  0  0  0  0  0  0  0  0  0  0
  1  6  1  0
  1 32  1  0
  1 33  1  0
  2  4  1  0
  2  6  1  0
  3  7  1  0
  3 20  1  0
  4  5  1  0
  5 21  1  0
  7  8  1  0
  7 34  1  0
  8  9  1  0
  9 10  1  0
 10 11  1  0
 10 12  1  0
 11 13  1  0
 12 14  1  0
 13 15  1  0
 14 15  1  0
 15 35  1  0
 16 18  2  0
 16 22  1  0
 17 23  1  0
 17 29  1  0
 17 31  1  0
 18 19  1  0
 18 26  1  0
 19 20  2  0
 20 21  1  0
 21 22  2  0
 23 24  2  0
 24 30  1  0
 25 26  2  0
 25 30  1  0
 26 27  1  0
 27 28  2  0
 28 29  1  0
 29 30  2  0
M  END
>  <CHROM.0>  (80) 
60.17723894,66.60623461,-54.87640502

>  <CHROM.1>  (80) 
-69.85628547,64.38202567,-71.90746202,-135.05822658,92.24188667,-173.47474337
-103.92197708,-166.72847190,101.99575596,-79.10796694,-134.89229110,-0.27998166
1.47339906,15.89900433,-0.61801048,-0.35739393,-0.20888270

>  <Name>  (80) 
1uts_h

>  <RI>  (80) 
3.0543e+07

>  <Rbt.Current_Directory>  (80) 
/home/jta30/NA_complexes/1uts

>  <Rbt.Executable>  (80) 
rbdock ($Id: //depot/dev/client3/rdock/2013.1/src/exe/rbdock.cxx#4 $)

>  <Rbt.Library>  (80) 
libRbt.so (2013.1, Build901 2013/11/27)

>  <Rbt.Parameter_File>  (80) 
/software/dev_tools/swtree/cs400_centos7.2_pe2016-08/rdock/2013.1/centos7.2_conda/build/data/scripts/dock.prm

>  <Rbt.Receptor>  (80) 
1uts.prm

>  <SCORE>  (80) 
-9.77014

>  <SCORE.INTER>  (80) 
-7.93564

>  <SCORE.INTER.CONST>  (80) 
1

>  <SCORE.INTER.POLAR>  (80) 
0

>  <SCORE.INTER.REPUL>  (80) 
0.0239692

>  <SCORE.INTER.ROT>  (80) 
11

>  <SCORE.INTER.VDW>  (80) 
-24.4555

>  <SCORE.INTER.norm>  (80) 
-0.264521

>  <SCORE.INTRA>  (80) 
-3.13259

>  <SCORE.INTRA.DIHEDRAL>  (80) 
-0.430762

>  <SCORE.INTRA.DIHEDRAL.0>  (80) 
14.7121

>  <SCORE.INTRA.POLAR>  (80) 
-0.699048

>  <SCORE.INTRA.POLAR.0>  (80) 
0

>  <SCORE.INTRA.REPUL>  (80) 
0

>  <SCORE.INTRA.REPUL.0>  (80) 
0

>  <SCORE.INTRA.VDW>  (80) 
-0.540443

>  <SCORE.INTRA.VDW.0>  (80) 
-0.649219

>  <SCORE.INTRA.norm>  (80) 
-0.10442

>  <SCORE.RESTR>  (80) 
0

>  <SCORE.RESTR.CAVITY>  (80) 
0

>  <SCORE.RESTR.norm>  (80) 
0

>  <SCORE.SYSTEM>  (80) 
1.29809

>  <SCORE.SYSTEM.CONST>  (80) 
0

>  <SCORE.SYSTEM.DIHEDRAL>  (80) 
0.578601

>  <SCORE.SYSTEM.POLAR>  (80) 
-0.103011

>  <SCORE.SYSTEM.REPUL>  (80) 
0.455355

>  <SCORE.SYSTEM.VDW>  (80) 
-0.917749

>  <SCORE.SYSTEM.norm>  (80) 
0.0432696

>  <SCORE.heavy>  (80) 
30

>  <SCORE.norm>  (80) 
-0.325671

>  <pdb_header>  (80) 
CRYST1    1.000    1.000    1.000  90.00  90.00  90.00 P 1           1

>  <Predicted_Rank>  (80) 
81.0

$$$$
1uts_h
     RDKit          3D

 35 38  0  0  0  0  0  0  0  0999 V2000
    3.7024    7.4338   19.3759 N   0  0  0  0  0  0  0  0  0  0  0  0
    2.8666    5.1317   19.5735 C   0  0  0  0  0  0  0  0  0  0  0  0
    1.9378    2.5071   16.1436 C   0  0  0  0  0  0  0  0  0  0  0  0
    2.0177    5.1699   18.2994 C   0  0  0  0  0  0  0  0  0  0  0  0
    0.9897    4.1719   18.3821 O   0  0  0  0  0  0  0  0  0  0  0  0
    4.1058    6.0095   19.3890 C   0  0  0  0  0  0  0  0  0  0  0  0
    3.1272    3.3571   15.9094 N   0  0  0  0  0  0  0  0  0  0  0  0
    4.1556    3.0761   16.9459 C   0  0  0  0  0  0  0  0  0  0  0  0
    5.2649    2.2033   16.3517 C   0  0  0  0  0  0  0  0  0  0  0  0
    5.3561    0.9369   17.1124 N   0  0  0  0  0  0  0  0  0  0  0  0
    6.6151    0.2291   16.7411 C   0  0  0  0  0  0  0  0  0  0  0  0
    4.1712    0.0878   16.8024 C   0  0  0  0  0  0  0  0  0  0  0  0
    6.7114   -1.0889   17.5266 C   0  0  0  0  0  0  0  0  0  0  0  0
    4.2685   -1.2338   17.5855 C   0  0  0  0  0  0  0  0  0  0  0  0
    5.5272   -1.9390   17.2160 N   0  0  0  0  0  0  0  0  0  0  0  0
   -1.7259    4.8977   15.8661 C   0  0  0  0  0  0  0  0  0  0  0  0
   -4.0924    4.1512    9.8826 N   0  0  0  0  0  0  0  0  0  0  0  0
   -1.2950    4.1251   14.7613 C   0  0  0  0  0  0  0  0  0  0  0  0
   -0.1066    3.3531   14.8578 C   0  0  0  0  0  0  0  0  0  0  0  0
    0.6500    3.3514   16.0617 C   0  0  0  0  0  0  0  0  0  0  0  0
    0.2225    4.1440   17.1690 C   0  0  0  0  0  0  0  0  0  0  0  0
   -0.9696    4.9124   17.0677 C   0  0  0  0  0  0  0  0  0  0  0  0
   -2.9832    4.4125    9.0464 C   0  0  0  0  0  0  0  0  0  0  0  0
   -1.7998    4.5537    9.8062 C   0  0  0  0  0  0  0  0  0  0  0  0
   -1.4059    4.3793   12.3317 C   0  0  0  0  0  0  0  0  0  0  0  0
   -2.0454    4.1329   13.5770 C   0  0  0  0  0  0  0  0  0  0  0  0
   -3.4455    3.8876   13.6186 C   0  0  0  0  0  0  0  0  0  0  0  0
   -4.2034    3.8867   12.4165 C   0  0  0  0  0  0  0  0  0  0  0  0
   -3.5548    4.1211   11.1638 C   0  0  0  0  0  0  0  0  0  0  0  0
   -2.1698    4.3646   11.1207 C   0  0  0  0  0  0  0  0  0  0  0  0
   -5.0268    4.0140    9.6181 H   0  0  0  0  0  0  0  0  0  0  0  0
    4.4401    7.9957   18.9278 H   0  0  0  0  0  0  0  0  0  0  0  0
    2.8247    7.5369   18.8471 H   0  0  0  0  0  0  0  0  0  0  0  0
    2.8534    4.3494   15.9535 H   0  0  0  0  0  0  0  0  0  0  0  0
    5.5930   -2.8189   17.7476 H   0  0  0  0  0  0  0  0  0  0  0  0
  1  6  1  0
  1 32  1  0
  1 33  1  0
  2  4  1  0
  2  6  1  0
  3  7  1  0
  3 20  1  0
  4  5  1  0
  5 21  1  0
  7  8  1  0
  7 34  1  0
  8  9  1  0
  9 10  1  0
 10 11  1  0
 10 12  1  0
 11 13  1  0
 12 14  1  0
 13 15  1  0
 14 15  1  0
 15 35  1  0
 16 18  2  0
 16 22  1  0
 17 23  1  0
 17 29  1  0
 17 31  1  0
 18 19  1  0
 18 26  1  0
 19 20  2  0
 20 21  1  0
 21 22  2  0
 23 24  2  0
 24 30  1  0
 25 26  2  0
 25 30  1  0
 26 27  1  0
 27 28  2  0
 28 29  1  0
 29 30  2  0
M  END
>  <CHROM.0>  (81) 
-37.40011644,-89.14484078,51.13236846

>  <CHROM.1>  (81) 
-159.87622683,169.90284189,70.71165975,132.89534419,98.59950285,-177.10851849
86.52392628,103.19172787,-120.47028481,-167.41444068,129.53373336,1.27627448
3.24417711,15.56341569,0.20703280,-0.68086738,0.75006026

>  <Name>  (81) 
1uts_h

>  <RI>  (81) 
3.0543e+07

>  <Rbt.Current_Directory>  (81) 
/home/jta30/NA_complexes/1uts

>  <Rbt.Executable>  (81) 
rbdock ($Id: //depot/dev/client3/rdock/2013.1/src/exe/rbdock.cxx#4 $)

>  <Rbt.Library>  (81) 
libRbt.so (2013.1, Build901 2013/11/27)

>  <Rbt.Parameter_File>  (81) 
/software/dev_tools/swtree/cs400_centos7.2_pe2016-08/rdock/2013.1/centos7.2_conda/build/data/scripts/dock.prm

>  <Rbt.Receptor>  (81) 
1uts.prm

>  <SCORE>  (81) 
-3.56632

>  <SCORE.INTER>  (81) 
-11.7104

>  <SCORE.INTER.CONST>  (81) 
1

>  <SCORE.INTER.POLAR>  (81) 
-0.583731

>  <SCORE.INTER.REPUL>  (81) 
0.00304585

>  <SCORE.INTER.ROT>  (81) 
11

>  <SCORE.INTER.VDW>  (81) 
-26.141

>  <SCORE.INTER.norm>  (81) 
-0.390347

>  <SCORE.INTRA>  (81) 
0.826866

>  <SCORE.INTRA.DIHEDRAL>  (81) 
2.63061

>  <SCORE.INTRA.DIHEDRAL.0>  (81) 
14.7121

>  <SCORE.INTRA.POLAR>  (81) 
0

>  <SCORE.INTRA.POLAR.0>  (81) 
0

>  <SCORE.INTRA.REPUL>  (81) 
0

>  <SCORE.INTRA.REPUL.0>  (81) 
0

>  <SCORE.INTRA.VDW>  (81) 
-0.488437

>  <SCORE.INTRA.VDW.0>  (81) 
-0.649219

>  <SCORE.INTRA.norm>  (81) 
0.0275622

>  <SCORE.RESTR>  (81) 
0

>  <SCORE.RESTR.CAVITY>  (81) 
0

>  <SCORE.RESTR.norm>  (81) 
0

>  <SCORE.SYSTEM>  (81) 
7.31724

>  <SCORE.SYSTEM.CONST>  (81) 
0

>  <SCORE.SYSTEM.DIHEDRAL>  (81) 
6.18479

>  <SCORE.SYSTEM.POLAR>  (81) 
-1.01857

>  <SCORE.SYSTEM.REPUL>  (81) 
1.21786

>  <SCORE.SYSTEM.VDW>  (81) 
1.59869

>  <SCORE.SYSTEM.norm>  (81) 
0.243908

>  <SCORE.heavy>  (81) 
30

>  <SCORE.norm>  (81) 
-0.118877

>  <pdb_header>  (81) 
CRYST1    1.000    1.000    1.000  90.00  90.00  90.00 P 1           1

>  <Predicted_Rank>  (81) 
82.0

$$$$
1uts_h
     RDKit          3D

 35 38  0  0  0  0  0  0  0  0999 V2000
   -4.2931    3.7875   10.7939 N   0  0  0  0  0  0  0  0  0  0  0  0
   -2.8303    4.0524   12.7502 C   0  0  0  0  0  0  0  0  0  0  0  0
   -2.6169    2.1519   15.6239 C   0  0  0  0  0  0  0  0  0  0  0  0
   -1.6912    4.9080   13.3122 C   0  0  0  0  0  0  0  0  0  0  0  0
   -1.6778    4.8022   14.7434 O   0  0  0  0  0  0  0  0  0  0  0  0
   -3.0044    4.3478   11.2594 C   0  0  0  0  0  0  0  0  0  0  0  0
   -3.4137    3.2226   16.2648 N   0  0  0  0  0  0  0  0  0  0  0  0
   -4.8633    2.9396   16.0926 C   0  0  0  0  0  0  0  0  0  0  0  0
   -5.2715    3.1944   14.6386 C   0  0  0  0  0  0  0  0  0  0  0  0
   -6.6850    2.7992   14.4473 N   0  0  0  0  0  0  0  0  0  0  0  0
   -6.7758    1.3122   14.3809 C   0  0  0  0  0  0  0  0  0  0  0  0
   -7.2027    3.4086   13.1898 C   0  0  0  0  0  0  0  0  0  0  0  0
   -8.2423    0.8980   14.1784 C   0  0  0  0  0  0  0  0  0  0  0  0
   -8.6701    2.9915   12.9840 C   0  0  0  0  0  0  0  0  0  0  0  0
   -8.7603    1.5062   12.9201 N   0  0  0  0  0  0  0  0  0  0  0  0
    1.6378    3.2051   15.5728 C   0  0  0  0  0  0  0  0  0  0  0  0
    4.9066   -1.9558   17.7551 N   0  0  0  0  0  0  0  0  0  0  0  0
    1.2265    1.9268   16.0201 C   0  0  0  0  0  0  0  0  0  0  0  0
   -0.1538    1.5922   16.0345 C   0  0  0  0  0  0  0  0  0  0  0  0
   -1.1237    2.5360   15.5982 C   0  0  0  0  0  0  0  0  0  0  0  0
   -0.7080    3.8302   15.1629 C   0  0  0  0  0  0  0  0  0  0  0  0
    0.6753    4.1585   15.1478 C   0  0  0  0  0  0  0  0  0  0  0  0
    3.9614   -2.9382   18.1283 C   0  0  0  0  0  0  0  0  0  0  0  0
    2.6424   -2.4763   17.9172 C   0  0  0  0  0  0  0  0  0  0  0  0
    1.7815   -0.2537   16.9777 C   0  0  0  0  0  0  0  0  0  0  0  0
    2.1884    1.0020   16.4502 C   0  0  0  0  0  0  0  0  0  0  0  0
    3.5721    1.3152   16.3532 C   0  0  0  0  0  0  0  0  0  0  0  0
    4.5463    0.3732   16.7810 C   0  0  0  0  0  0  0  0  0  0  0  0
    4.1342   -0.8947   17.2983 C   0  0  0  0  0  0  0  0  0  0  0  0
    2.7656   -1.2062   17.3955 C   0  0  0  0  0  0  0  0  0  0  0  0
    5.8847   -2.0133   17.8002 H   0  0  0  0  0  0  0  0  0  0  0  0
   -4.4831    4.1130    9.8355 H   0  0  0  0  0  0  0  0  0  0  0  0
   -4.2430    2.7588   10.8023 H   0  0  0  0  0  0  0  0  0  0  0  0
   -3.1837    4.1280   15.8298 H   0  0  0  0  0  0  0  0  0  0  0  0
   -9.7442    1.2303   12.7904 H   0  0  0  0  0  0  0  0  0  0  0  0
  1  6  1  0
  1 32  1  0
  1 33  1  0
  2  4  1  0
  2  6  1  0
  3  7  1  0
  3 20  1  0
  4  5  1  0
  5 21  1  0
  7  8  1  0
  7 34  1  0
  8  9  1  0
  9 10  1  0
 10 11  1  0
 10 12  1  0
 11 13  1  0
 12 14  1  0
 13 15  1  0
 14 15  1  0
 15 35  1  0
 16 18  2  0
 16 22  1  0
 17 23  1  0
 17 29  1  0
 17 31  1  0
 18 19  1  0
 18 26  1  0
 19 20  2  0
 20 21  1  0
 21 22  2  0
 23 24  2  0
 24 30  1  0
 25 26  2  0
 25 30  1  0
 26 27  1  0
 27 28  2  0
 28 29  1  0
 29 30  2  0
M  END
>  <CHROM.0>  (82) 
-37.56036980,-88.13306322,48.13960200

>  <CHROM.1>  (82) 
170.96649079,170.25171926,-166.20761741,171.17362093,131.70399847,97.54242732
-103.74986289,-72.86281799,175.12434934,-75.87583448,176.16085558,-1.72714812
1.97269369,15.09038781,-2.69706002,0.15772415,2.61626397

>  <Name>  (82) 
1uts_h

>  <RI>  (82) 
3.0543e+07

>  <Rbt.Current_Directory>  (82) 
/home/jta30/NA_complexes/1uts

>  <Rbt.Executable>  (82) 
rbdock ($Id: //depot/dev/client3/rdock/2013.1/src/exe/rbdock.cxx#4 $)

>  <Rbt.Library>  (82) 
libRbt.so (2013.1, Build901 2013/11/27)

>  <Rbt.Parameter_File>  (82) 
/software/dev_tools/swtree/cs400_centos7.2_pe2016-08/rdock/2013.1/centos7.2_conda/build/data/scripts/dock.prm

>  <Rbt.Receptor>  (82) 
1uts.prm

>  <SCORE>  (82) 
-11.2859

>  <SCORE.INTER>  (82) 
-15.1205

>  <SCORE.INTER.CONST>  (82) 
1

>  <SCORE.INTER.POLAR>  (82) 
-1.20429

>  <SCORE.INTER.REPUL>  (82) 
0

>  <SCORE.INTER.ROT>  (82) 
11

>  <SCORE.INTER.VDW>  (82) 
-27.4259

>  <SCORE.INTER.norm>  (82) 
-0.504015

>  <SCORE.INTRA>  (82) 
-3.45589

>  <SCORE.INTRA.DIHEDRAL>  (82) 
-1.54893

>  <SCORE.INTRA.DIHEDRAL.0>  (82) 
14.7121

>  <SCORE.INTRA.POLAR>  (82) 
-0.691962

>  <SCORE.INTRA.POLAR.0>  (82) 
0

>  <SCORE.INTRA.REPUL>  (82) 
0

>  <SCORE.INTRA.REPUL.0>  (82) 
0

>  <SCORE.INTRA.VDW>  (82) 
-0.328752

>  <SCORE.INTRA.VDW.0>  (82) 
-0.649219

>  <SCORE.INTRA.norm>  (82) 
-0.115196

>  <SCORE.RESTR>  (82) 
0

>  <SCORE.RESTR.CAVITY>  (82) 
0

>  <SCORE.RESTR.norm>  (82) 
0

>  <SCORE.SYSTEM>  (82) 
7.29047

>  <SCORE.SYSTEM.CONST>  (82) 
0

>  <SCORE.SYSTEM.DIHEDRAL>  (82) 
6.25312

>  <SCORE.SYSTEM.POLAR>  (82) 
-1.02446

>  <SCORE.SYSTEM.REPUL>  (82) 
1.17379

>  <SCORE.SYSTEM.VDW>  (82) 
1.7781

>  <SCORE.SYSTEM.norm>  (82) 
0.243016

>  <SCORE.heavy>  (82) 
30

>  <SCORE.norm>  (82) 
-0.376196

>  <pdb_header>  (82) 
CRYST1    1.000    1.000    1.000  90.00  90.00  90.00 P 1           1

>  <Predicted_Rank>  (82) 
83.0

$$$$
1uts_h
     RDKit          3D

 35 38  0  0  0  0  0  0  0  0999 V2000
   -0.4139    3.8993   22.4395 N   0  0  0  0  0  0  0  0  0  0  0  0
    0.8457    5.9628   22.8781 C   0  0  0  0  0  0  0  0  0  0  0  0
    3.6186    6.6631   19.5975 C   0  0  0  0  0  0  0  0  0  0  0  0
    1.9896    6.8459   22.3712 C   0  0  0  0  0  0  0  0  0  0  0  0
    1.4969    7.7217   21.3465 O   0  0  0  0  0  0  0  0  0  0  0  0
    0.7728    4.6873   22.0367 C   0  0  0  0  0  0  0  0  0  0  0  0
    4.2733    5.3812   19.9440 N   0  0  0  0  0  0  0  0  0  0  0  0
    4.3975    4.5370   18.7263 C   0  0  0  0  0  0  0  0  0  0  0  0
    4.7176    3.0939   19.1270 C   0  0  0  0  0  0  0  0  0  0  0  0
    4.5285    2.2048   17.9589 N   0  0  0  0  0  0  0  0  0  0  0  0
    3.0793    1.8843   17.8136 C   0  0  0  0  0  0  0  0  0  0  0  0
    5.3200    0.9573   18.1541 C   0  0  0  0  0  0  0  0  0  0  0  0
    2.8794    0.9577   16.6034 C   0  0  0  0  0  0  0  0  0  0  0  0
    5.1177    0.0270   16.9445 C   0  0  0  0  0  0  0  0  0  0  0  0
    3.6699   -0.2907   16.7986 N   0  0  0  0  0  0  0  0  0  0  0  0
   -0.6312    6.0122   18.7425 C   0  0  0  0  0  0  0  0  0  0  0  0
   -1.3973    2.8068   13.2535 N   0  0  0  0  0  0  0  0  0  0  0  0
    0.3571    5.5021   17.8671 C   0  0  0  0  0  0  0  0  0  0  0  0
    1.7324    5.7170   18.1498 C   0  0  0  0  0  0  0  0  0  0  0  0
    2.1198    6.4403   19.3111 C   0  0  0  0  0  0  0  0  0  0  0  0
    1.1213    6.9679   20.1838 C   0  0  0  0  0  0  0  0  0  0  0  0
   -0.2538    6.7469   19.8974 C   0  0  0  0  0  0  0  0  0  0  0  0
   -2.6632    3.4282   13.1586 C   0  0  0  0  0  0  0  0  0  0  0  0
   -2.8578    4.3428   14.2185 C   0  0  0  0  0  0  0  0  0  0  0  0
   -1.3143    5.0134   16.1504 C   0  0  0  0  0  0  0  0  0  0  0  0
   -0.0326    4.7911   16.7232 C   0  0  0  0  0  0  0  0  0  0  0  0
    0.8557    3.8522   16.1304 C   0  0  0  0  0  0  0  0  0  0  0  0
    0.4631    3.1390   14.9656 C   0  0  0  0  0  0  0  0  0  0  0  0
   -0.8216    3.3749   14.3835 C   0  0  0  0  0  0  0  0  0  0  0  0
   -1.7021    4.3030   14.9691 C   0  0  0  0  0  0  0  0  0  0  0  0
   -1.0101    2.1343   12.6536 H   0  0  0  0  0  0  0  0  0  0  0  0
   -0.3580    3.6837   23.4450 H   0  0  0  0  0  0  0  0  0  0  0  0
   -1.2674    4.4448   22.2533 H   0  0  0  0  0  0  0  0  0  0  0  0
    3.7087    4.8881   20.6509 H   0  0  0  0  0  0  0  0  0  0  0  0
    3.5371   -0.9067   15.9838 H   0  0  0  0  0  0  0  0  0  0  0  0
  1  6  1  0
  1 32  1  0
  1 33  1  0
  2  4  1  0
  2  6  1  0
  3  7  1  0
  3 20  1  0
  4  5  1  0
  5 21  1  0
  7  8  1  0
  7 34  1  0
  8  9  1  0
  9 10  1  0
 10 11  1  0
 10 12  1  0
 11 13  1  0
 12 14  1  0
 13 15  1  0
 14 15  1  0
 15 35  1  0
 16 18  2  0
 16 22  1  0
 17 23  1  0
 17 29  1  0
 17 31  1  0
 18 19  1  0
 18 26  1  0
 19 20  2  0
 20 21  1  0
 21 22  2  0
 23 24  2  0
 24 30  1  0
 25 26  2  0
 25 30  1  0
 26 27  1  0
 27 28  2  0
 28 29  1  0
 29 30  2  0
M  END
>  <CHROM.0>  (83) 
178.70344173,65.61837311,52.70937500

>  <CHROM.1>  (83) 
-57.63178719,89.27581364,-174.42415176,72.17110195,-68.50724219,-67.00653769
-75.30373604,-164.92310681,166.84330827,-81.21282928,24.85962914,1.48579221
4.18011997,18.14527159,1.23190015,-0.55141732,0.93701874

>  <Name>  (83) 
1uts_h

>  <RI>  (83) 
3.0543e+07

>  <Rbt.Current_Directory>  (83) 
/home/jta30/NA_complexes/1uts

>  <Rbt.Executable>  (83) 
rbdock ($Id: //depot/dev/client3/rdock/2013.1/src/exe/rbdock.cxx#4 $)

>  <Rbt.Library>  (83) 
libRbt.so (2013.1, Build901 2013/11/27)

>  <Rbt.Parameter_File>  (83) 
/software/dev_tools/swtree/cs400_centos7.2_pe2016-08/rdock/2013.1/centos7.2_conda/build/data/scripts/dock.prm

>  <Rbt.Receptor>  (83) 
1uts.prm

>  <SCORE>  (83) 
-6.15612

>  <SCORE.INTER>  (83) 
-6.72978

>  <SCORE.INTER.CONST>  (83) 
1

>  <SCORE.INTER.POLAR>  (83) 
-1.36711

>  <SCORE.INTER.REPUL>  (83) 
0

>  <SCORE.INTER.ROT>  (83) 
11

>  <SCORE.INTER.VDW>  (83) 
-18.4816

>  <SCORE.INTER.norm>  (83) 
-0.224326

>  <SCORE.INTRA>  (83) 
-2.23638

>  <SCORE.INTRA.DIHEDRAL>  (83) 
-3.67462

>  <SCORE.INTRA.DIHEDRAL.0>  (83) 
14.7121

>  <SCORE.INTRA.POLAR>  (83) 
0

>  <SCORE.INTRA.POLAR.0>  (83) 
0

>  <SCORE.INTRA.REPUL>  (83) 
0

>  <SCORE.INTRA.REPUL.0>  (83) 
0

>  <SCORE.INTRA.VDW>  (83) 
-0.399071

>  <SCORE.INTRA.VDW.0>  (83) 
-0.649219

>  <SCORE.INTRA.norm>  (83) 
-0.0745461

>  <SCORE.RESTR>  (83) 
0

>  <SCORE.RESTR.CAVITY>  (83) 
0

>  <SCORE.RESTR.norm>  (83) 
0

>  <SCORE.SYSTEM>  (83) 
2.81005

>  <SCORE.SYSTEM.CONST>  (83) 
0

>  <SCORE.SYSTEM.DIHEDRAL>  (83) 
0.655584

>  <SCORE.SYSTEM.POLAR>  (83) 
-0.175719

>  <SCORE.SYSTEM.REPUL>  (83) 
0.788544

>  <SCORE.SYSTEM.VDW>  (83) 
-0.863023

>  <SCORE.SYSTEM.norm>  (83) 
0.0936682

>  <SCORE.heavy>  (83) 
30

>  <SCORE.norm>  (83) 
-0.205204

>  <pdb_header>  (83) 
CRYST1    1.000    1.000    1.000  90.00  90.00  90.00 P 1           1

>  <Predicted_Rank>  (83) 
84.0

$$$$
1uts_h
     RDKit          3D

 35 38  0  0  0  0  0  0  0  0999 V2000
    6.2009    6.0685   18.4025 N   0  0  0  0  0  0  0  0  0  0  0  0
    4.6577    4.1690   18.6203 C   0  0  0  0  0  0  0  0  0  0  0  0
    2.4429    2.0600   16.1024 C   0  0  0  0  0  0  0  0  0  0  0  0
    3.4875    4.5536   17.7105 C   0  0  0  0  0  0  0  0  0  0  0  0
    2.2650    4.0495   18.2684 O   0  0  0  0  0  0  0  0  0  0  0  0
    5.9683    4.6619   18.0041 C   0  0  0  0  0  0  0  0  0  0  0  0
    2.0658    0.7826   16.7490 N   0  0  0  0  0  0  0  0  0  0  0  0
    3.2399   -0.1293   16.7792 C   0  0  0  0  0  0  0  0  0  0  0  0
    3.1571   -1.0396   18.0080 C   0  0  0  0  0  0  0  0  0  0  0  0
    2.0266   -1.9815   17.8479 N   0  0  0  0  0  0  0  0  0  0  0  0
    1.0792   -1.8118   18.9870 C   0  0  0  0  0  0  0  0  0  0  0  0
    2.5479   -3.3771   17.8087 C   0  0  0  0  0  0  0  0  0  0  0  0
   -0.0946   -2.7913   18.8261 C   0  0  0  0  0  0  0  0  0  0  0  0
    1.3731   -4.3592   17.6514 C   0  0  0  0  0  0  0  0  0  0  0  0
    0.4261   -4.1874   18.7880 N   0  0  0  0  0  0  0  0  0  0  0  0
   -0.8597    4.9318   16.3476 C   0  0  0  0  0  0  0  0  0  0  0  0
   -4.6488    4.0164   11.1787 N   0  0  0  0  0  0  0  0  0  0  0  0
   -0.8015    4.0036   15.2806 C   0  0  0  0  0  0  0  0  0  0  0  0
    0.2716    3.0761   15.2069 C   0  0  0  0  0  0  0  0  0  0  0  0
    1.2862    3.0748   16.2032 C   0  0  0  0  0  0  0  0  0  0  0  0
    1.2344    4.0224   17.2693 C   0  0  0  0  0  0  0  0  0  0  0  0
    0.1560    4.9465   17.3396 C   0  0  0  0  0  0  0  0  0  0  0  0
   -3.7533    4.1938   10.0996 C   0  0  0  0  0  0  0  0  0  0  0  0
   -2.4213    4.2987   10.5604 C   0  0  0  0  0  0  0  0  0  0  0  0
   -1.4610    4.1853   12.9330 C   0  0  0  0  0  0  0  0  0  0  0  0
   -1.8047    4.0119   14.3013 C   0  0  0  0  0  0  0  0  0  0  0  0
   -3.1663    3.8398   14.6739 C   0  0  0  0  0  0  0  0  0  0  0  0
   -4.1813    3.8391   13.6792 C   0  0  0  0  0  0  0  0  0  0  0  0
   -3.8310    3.9999   12.3021 C   0  0  0  0  0  0  0  0  0  0  0  0
   -2.4845    4.1709   11.9316 C   0  0  0  0  0  0  0  0  0  0  0  0
   -5.6240    3.9187   11.1420 H   0  0  0  0  0  0  0  0  0  0  0  0
    5.5202    6.6775   17.9267 H   0  0  0  0  0  0  0  0  0  0  0  0
    6.0875    6.1596   19.4222 H   0  0  0  0  0  0  0  0  0  0  0  0
    1.2997    0.3430   16.2183 H   0  0  0  0  0  0  0  0  0  0  0  0
   -0.3627   -4.8402   18.6755 H   0  0  0  0  0  0  0  0  0  0  0  0
  1  6  1  0
  1 32  1  0
  1 33  1  0
  2  4  1  0
  2  6  1  0
  3  7  1  0
  3 20  1  0
  4  5  1  0
  5 21  1  0
  7  8  1  0
  7 34  1  0
  8  9  1  0
  9 10  1  0
 10 11  1  0
 10 12  1  0
 11 13  1  0
 12 14  1  0
 13 15  1  0
 14 15  1  0
 15 35  1  0
 16 18  2  0
 16 22  1  0
 17 23  1  0
 17 29  1  0
 17 31  1  0
 18 19  1  0
 18 26  1  0
 19 20  2  0
 20 21  1  0
 21 22  2  0
 23 24  2  0
 24 30  1  0
 25 26  2  0
 25 30  1  0
 26 27  1  0
 27 28  2  0
 28 29  1  0
 29 30  2  0
M  END
>  <CHROM.0>  (84) 
56.64943638,64.86125945,-54.82726232

>  <CHROM.1>  (84) 
-70.24760923,178.02522403,85.49607417,-173.66561939,-86.79918316,-162.15222571
70.93856284,149.45080319,68.33778129,-121.84600499,122.87028390,0.64328076
2.12736712,16.07502811,-0.72506228,-0.62982290,-0.28943915

>  <Name>  (84) 
1uts_h

>  <RI>  (84) 
3.0543e+07

>  <Rbt.Current_Directory>  (84) 
/home/jta30/NA_complexes/1uts

>  <Rbt.Executable>  (84) 
rbdock ($Id: //depot/dev/client3/rdock/2013.1/src/exe/rbdock.cxx#4 $)

>  <Rbt.Library>  (84) 
libRbt.so (2013.1, Build901 2013/11/27)

>  <Rbt.Parameter_File>  (84) 
/software/dev_tools/swtree/cs400_centos7.2_pe2016-08/rdock/2013.1/centos7.2_conda/build/data/scripts/dock.prm

>  <Rbt.Receptor>  (84) 
1uts.prm

>  <SCORE>  (84) 
-10.4397

>  <SCORE.INTER>  (84) 
-9.57212

>  <SCORE.INTER.CONST>  (84) 
1

>  <SCORE.INTER.POLAR>  (84) 
-0.498827

>  <SCORE.INTER.REPUL>  (84) 
0

>  <SCORE.INTER.ROT>  (84) 
11

>  <SCORE.INTER.VDW>  (84) 
-24.2761

>  <SCORE.INTER.norm>  (84) 
-0.319071

>  <SCORE.INTRA>  (84) 
-2.19928

>  <SCORE.INTRA.DIHEDRAL>  (84) 
-0.89214

>  <SCORE.INTRA.DIHEDRAL.0>  (84) 
14.7121

>  <SCORE.INTRA.POLAR>  (84) 
0

>  <SCORE.INTRA.POLAR.0>  (84) 
0

>  <SCORE.INTRA.REPUL>  (84) 
0

>  <SCORE.INTRA.REPUL.0>  (84) 
0

>  <SCORE.INTRA.VDW>  (84) 
-1.75321

>  <SCORE.INTRA.VDW.0>  (84) 
-0.649219

>  <SCORE.INTRA.norm>  (84) 
-0.0733094

>  <SCORE.RESTR>  (84) 
0

>  <SCORE.RESTR.CAVITY>  (84) 
0

>  <SCORE.RESTR.norm>  (84) 
0

>  <SCORE.SYSTEM>  (84) 
1.33174

>  <SCORE.SYSTEM.CONST>  (84) 
0

>  <SCORE.SYSTEM.DIHEDRAL>  (84) 
0.539818

>  <SCORE.SYSTEM.POLAR>  (84) 
-0.0757395

>  <SCORE.SYSTEM.REPUL>  (84) 
0.454639

>  <SCORE.SYSTEM.VDW>  (84) 
-0.953851

>  <SCORE.SYSTEM.norm>  (84) 
0.0443913

>  <SCORE.heavy>  (84) 
30

>  <SCORE.norm>  (84) 
-0.347989

>  <pdb_header>  (84) 
CRYST1    1.000    1.000    1.000  90.00  90.00  90.00 P 1           1

>  <Predicted_Rank>  (84) 
85.0

$$$$
1uts_h
     RDKit          3D

 35 38  0  0  0  0  0  0  0  0999 V2000
    4.2712   -5.0665   17.1286 N   0  0  0  0  0  0  0  0  0  0  0  0
    4.5709   -2.7867   17.9945 C   0  0  0  0  0  0  0  0  0  0  0  0
    3.5901    1.4435   20.4901 C   0  0  0  0  0  0  0  0  0  0  0  0
    4.5191   -1.9245   19.2591 C   0  0  0  0  0  0  0  0  0  0  0  0
    5.0413   -0.6199   18.9677 O   0  0  0  0  0  0  0  0  0  0  0  0
    4.1239   -4.2112   18.3279 C   0  0  0  0  0  0  0  0  0  0  0  0
    4.5046    2.5954   20.6595 N   0  0  0  0  0  0  0  0  0  0  0  0
    3.7850    3.8572   20.3417 C   0  0  0  0  0  0  0  0  0  0  0  0
    4.7339    5.0487   20.5011 C   0  0  0  0  0  0  0  0  0  0  0  0
    5.1732    5.1434   21.9114 N   0  0  0  0  0  0  0  0  0  0  0  0
    5.2747    6.5795   22.3001 C   0  0  0  0  0  0  0  0  0  0  0  0
    6.4932    4.4687   22.0641 C   0  0  0  0  0  0  0  0  0  0  0  0
    5.7346    6.6819   23.7635 C   0  0  0  0  0  0  0  0  0  0  0  0
    6.9565    4.5738   23.5283 C   0  0  0  0  0  0  0  0  0  0  0  0
    7.0553    6.0083   23.9166 N   0  0  0  0  0  0  0  0  0  0  0  0
    2.8128    0.7241   16.2365 C   0  0  0  0  0  0  0  0  0  0  0  0
   -1.9610    4.4877   14.1811 N   0  0  0  0  0  0  0  0  0  0  0  0
    2.0810    1.7130   16.9363 C   0  0  0  0  0  0  0  0  0  0  0  0
    2.3375    1.9407   18.3146 C   0  0  0  0  0  0  0  0  0  0  0  0
    3.3294    1.1805   18.9931 C   0  0  0  0  0  0  0  0  0  0  0  0
    4.0548    0.1726   18.2896 C   0  0  0  0  0  0  0  0  0  0  0  0
    3.7958   -0.0488   16.9092 C   0  0  0  0  0  0  0  0  0  0  0  0
   -2.5884    3.3585   13.6073 C   0  0  0  0  0  0  0  0  0  0  0  0
   -1.9154    2.1691   13.9678 C   0  0  0  0  0  0  0  0  0  0  0  0
    0.1385    1.7967   15.4534 C   0  0  0  0  0  0  0  0  0  0  0  0
    1.1036    2.4575   16.2610 C   0  0  0  0  0  0  0  0  0  0  0  0
    1.0717    3.8735   16.3881 C   0  0  0  0  0  0  0  0  0  0  0  0
    0.0749    4.6262   15.7104 C   0  0  0  0  0  0  0  0  0  0  0  0
   -0.9032    3.9573   14.9098 C   0  0  0  0  0  0  0  0  0  0  0  0
   -0.8729    2.5565   14.7824 C   0  0  0  0  0  0  0  0  0  0  0  0
   -2.2186    5.4299   14.0920 H   0  0  0  0  0  0  0  0  0  0  0  0
    3.9653   -6.0246   17.3503 H   0  0  0  0  0  0  0  0  0  0  0  0
    3.6912   -4.6900   16.3653 H   0  0  0  0  0  0  0  0  0  0  0  0
    5.3113    2.4884   20.0275 H   0  0  0  0  0  0  0  0  0  0  0  0
    7.3577    6.0749   24.8990 H   0  0  0  0  0  0  0  0  0  0  0  0
  1  6  1  0
  1 32  1  0
  1 33  1  0
  2  4  1  0
  2  6  1  0
  3  7  1  0
  3 20  1  0
  4  5  1  0
  5 21  1  0
  7  8  1  0
  7 34  1  0
  8  9  1  0
  9 10  1  0
 10 11  1  0
 10 12  1  0
 11 13  1  0
 12 14  1  0
 13 15  1  0
 14 15  1  0
 15 35  1  0
 16 18  2  0
 16 22  1  0
 17 23  1  0
 17 29  1  0
 17 31  1  0
 18 19  1  0
 18 26  1  0
 19 20  2  0
 20 21  1  0
 21 22  2  0
 23 24  2  0
 24 30  1  0
 25 26  2  0
 25 30  1  0
 26 27  1  0
 27 28  2  0
 28 29  1  0
 29 30  2  0
M  END
>  <CHROM.0>  (85) 
58.16375874,67.90263579,-173.85111940

>  <CHROM.1>  (85) 
-179.66761561,175.35340468,-175.80013954,72.73906495,-82.89498404,78.82968455
102.92876578,-179.36324318,-62.80944124,-142.76218752,48.26748647,3.09974461
2.19468634,18.56332361,-2.56076471,-0.78148211,0.34250708

>  <Name>  (85) 
1uts_h

>  <RI>  (85) 
3.0543e+07

>  <Rbt.Current_Directory>  (85) 
/home/jta30/NA_complexes/1uts

>  <Rbt.Executable>  (85) 
rbdock ($Id: //depot/dev/client3/rdock/2013.1/src/exe/rbdock.cxx#4 $)

>  <Rbt.Library>  (85) 
libRbt.so (2013.1, Build901 2013/11/27)

>  <Rbt.Parameter_File>  (85) 
/software/dev_tools/swtree/cs400_centos7.2_pe2016-08/rdock/2013.1/centos7.2_conda/build/data/scripts/dock.prm

>  <Rbt.Receptor>  (85) 
1uts.prm

>  <SCORE>  (85) 
-3.99416

>  <SCORE.INTER>  (85) 
-4.47323

>  <SCORE.INTER.CONST>  (85) 
1

>  <SCORE.INTER.POLAR>  (85) 
-1.74886

>  <SCORE.INTER.REPUL>  (85) 
0

>  <SCORE.INTER.ROT>  (85) 
11

>  <SCORE.INTER.VDW>  (85) 
-14.9271

>  <SCORE.INTER.norm>  (85) 
-0.149108

>  <SCORE.INTRA>  (85) 
-3.44224

>  <SCORE.INTRA.DIHEDRAL>  (85) 
-4.94073

>  <SCORE.INTRA.DIHEDRAL.0>  (85) 
14.7121

>  <SCORE.INTRA.POLAR>  (85) 
0

>  <SCORE.INTRA.POLAR.0>  (85) 
0

>  <SCORE.INTRA.REPUL>  (85) 
0

>  <SCORE.INTRA.REPUL.0>  (85) 
0

>  <SCORE.INTRA.VDW>  (85) 
-0.971879

>  <SCORE.INTRA.VDW.0>  (85) 
-0.649219

>  <SCORE.INTRA.norm>  (85) 
-0.114741

>  <SCORE.RESTR>  (85) 
0

>  <SCORE.RESTR.CAVITY>  (85) 
0

>  <SCORE.RESTR.norm>  (85) 
0

>  <SCORE.SYSTEM>  (85) 
3.92131

>  <SCORE.SYSTEM.CONST>  (85) 
0

>  <SCORE.SYSTEM.DIHEDRAL>  (85) 
0.738061

>  <SCORE.SYSTEM.POLAR>  (85) 
-0.111808

>  <SCORE.SYSTEM.REPUL>  (85) 
1.07969

>  <SCORE.SYSTEM.VDW>  (85) 
-1.46601

>  <SCORE.SYSTEM.norm>  (85) 
0.13071

>  <SCORE.heavy>  (85) 
30

>  <SCORE.norm>  (85) 
-0.133139

>  <pdb_header>  (85) 
CRYST1    1.000    1.000    1.000  90.00  90.00  90.00 P 1           1

>  <Predicted_Rank>  (85) 
86.0

$$$$
1uts_h
     RDKit          3D

 35 38  0  0  0  0  0  0  0  0999 V2000
   -0.8916    5.9751    9.9900 N   0  0  0  0  0  0  0  0  0  0  0  0
   -1.8929    5.2955   12.1284 C   0  0  0  0  0  0  0  0  0  0  0  0
   -3.7442    2.8936   16.4570 C   0  0  0  0  0  0  0  0  0  0  0  0
   -2.9672    4.4005   12.7529 C   0  0  0  0  0  0  0  0  0  0  0  0
   -2.9801    4.5936   14.1750 O   0  0  0  0  0  0  0  0  0  0  0  0
   -1.7456    4.9578   10.6436 C   0  0  0  0  0  0  0  0  0  0  0  0
   -4.3128    1.5375   16.2852 N   0  0  0  0  0  0  0  0  0  0  0  0
   -5.5821    1.4257   17.0517 C   0  0  0  0  0  0  0  0  0  0  0  0
   -6.6845    0.8644   16.1489 C   0  0  0  0  0  0  0  0  0  0  0  0
   -7.2368    1.9525   15.3111 N   0  0  0  0  0  0  0  0  0  0  0  0
   -8.4899    1.4807   14.6546 C   0  0  0  0  0  0  0  0  0  0  0  0
   -6.2294    2.3468   14.2861 C   0  0  0  0  0  0  0  0  0  0  0  0
   -9.0645    2.6071   13.7804 C   0  0  0  0  0  0  0  0  0  0  0  0
   -6.8050    3.4721   13.4077 C   0  0  0  0  0  0  0  0  0  0  0  0
   -8.0578    3.0010   12.7543 N   0  0  0  0  0  0  0  0  0  0  0  0
    0.3629    3.0170   14.9301 C   0  0  0  0  0  0  0  0  0  0  0  0
    4.1330   -0.6696   18.6178 N   0  0  0  0  0  0  0  0  0  0  0  0
    0.0407    2.2003   16.0403 C   0  0  0  0  0  0  0  0  0  0  0  0
   -1.2921    2.1654   16.5303 C   0  0  0  0  0  0  0  0  0  0  0  0
   -2.3044    2.9457   15.9073 C   0  0  0  0  0  0  0  0  0  0  0  0
   -1.9739    3.7811   14.7982 C   0  0  0  0  0  0  0  0  0  0  0  0
   -0.6387    3.8097   14.3101 C   0  0  0  0  0  0  0  0  0  0  0  0
    4.7882    0.4412   19.1961 C   0  0  0  0  0  0  0  0  0  0  0  0
    4.1447    1.6485   18.8410 C   0  0  0  0  0  0  0  0  0  0  0  0
    2.0629    2.0729   17.4092 C   0  0  0  0  0  0  0  0  0  0  0  0
    1.0444    1.4348   16.6503 C   0  0  0  0  0  0  0  0  0  0  0  0
    1.0415    0.0190   16.5169 C   0  0  0  0  0  0  0  0  0  0  0  0
    2.0543   -0.7565   17.1434 C   0  0  0  0  0  0  0  0  0  0  0  0
    3.0696   -0.1127   17.9177 C   0  0  0  0  0  0  0  0  0  0  0  0
    3.0744    1.2879   18.0503 C   0  0  0  0  0  0  0  0  0  0  0  0
    4.3700   -1.6179   18.6991 H   0  0  0  0  0  0  0  0  0  0  0  0
   -0.0224    6.0923   10.5299 H   0  0  0  0  0  0  0  0  0  0  0  0
   -0.6620    5.6675    9.0342 H   0  0  0  0  0  0  0  0  0  0  0  0
   -3.6388    0.8374   16.6277 H   0  0  0  0  0  0  0  0  0  0  0  0
   -8.4446    3.7589   12.1737 H   0  0  0  0  0  0  0  0  0  0  0  0
  1  6  1  0
  1 32  1  0
  1 33  1  0
  2  4  1  0
  2  6  1  0
  3  7  1  0
  3 20  1  0
  4  5  1  0
  5 21  1  0
  7  8  1  0
  7 34  1  0
  8  9  1  0
  9 10  1  0
 10 11  1  0
 10 12  1  0
 11 13  1  0
 12 14  1  0
 13 15  1  0
 14 15  1  0
 15 35  1  0
 16 18  2  0
 16 22  1  0
 17 23  1  0
 17 29  1  0
 17 31  1  0
 18 19  1  0
 18 26  1  0
 19 20  2  0
 20 21  1  0
 21 22  2  0
 23 24  2  0
 24 30  1  0
 25 26  2  0
 25 30  1  0
 26 27  1  0
 27 28  2  0
 28 29  1  0
 29 30  2  0
M  END
>  <CHROM.0>  (86) 
-36.51628411,27.78025306,-49.67806558

>  <CHROM.1>  (86) 
50.66602624,172.43920570,169.96100544,168.85843752,-64.71287165,-83.56062394
-129.77350110,129.75910594,-80.85487087,-167.93693718,70.60403898,-2.11722416
2.39931824,15.29909737,-2.70753834,0.08077869,2.24195787

>  <Name>  (86) 
1uts_h

>  <RI>  (86) 
3.0543e+07

>  <Rbt.Current_Directory>  (86) 
/home/jta30/NA_complexes/1uts

>  <Rbt.Executable>  (86) 
rbdock ($Id: //depot/dev/client3/rdock/2013.1/src/exe/rbdock.cxx#4 $)

>  <Rbt.Library>  (86) 
libRbt.so (2013.1, Build901 2013/11/27)

>  <Rbt.Parameter_File>  (86) 
/software/dev_tools/swtree/cs400_centos7.2_pe2016-08/rdock/2013.1/centos7.2_conda/build/data/scripts/dock.prm

>  <Rbt.Receptor>  (86) 
1uts.prm

>  <SCORE>  (86) 
-2.55848

>  <SCORE.INTER>  (86) 
-7.51435

>  <SCORE.INTER.CONST>  (86) 
1

>  <SCORE.INTER.POLAR>  (86) 
-1.03394

>  <SCORE.INTER.REPUL>  (86) 
0.0130811

>  <SCORE.INTER.ROT>  (86) 
11

>  <SCORE.INTER.VDW>  (86) 
-20.4644

>  <SCORE.INTER.norm>  (86) 
-0.250478

>  <SCORE.INTRA>  (86) 
-0.449141

>  <SCORE.INTRA.DIHEDRAL>  (86) 
-1.33987

>  <SCORE.INTRA.DIHEDRAL.0>  (86) 
14.7121

>  <SCORE.INTRA.POLAR>  (86) 
0

>  <SCORE.INTRA.POLAR.0>  (86) 
0

>  <SCORE.INTRA.REPUL>  (86) 
0

>  <SCORE.INTRA.REPUL.0>  (86) 
0

>  <SCORE.INTRA.VDW>  (86) 
0.220795

>  <SCORE.INTRA.VDW.0>  (86) 
-0.649219

>  <SCORE.INTRA.norm>  (86) 
-0.0149714

>  <SCORE.RESTR>  (86) 
0

>  <SCORE.RESTR.CAVITY>  (86) 
0

>  <SCORE.RESTR.norm>  (86) 
0

>  <SCORE.SYSTEM>  (86) 
5.40501

>  <SCORE.SYSTEM.CONST>  (86) 
0

>  <SCORE.SYSTEM.DIHEDRAL>  (86) 
7.03275

>  <SCORE.SYSTEM.POLAR>  (86) 
-0.195168

>  <SCORE.SYSTEM.REPUL>  (86) 
0.458675

>  <SCORE.SYSTEM.VDW>  (86) 
0.258827

>  <SCORE.SYSTEM.norm>  (86) 
0.180167

>  <SCORE.heavy>  (86) 
30

>  <SCORE.norm>  (86) 
-0.0852828

>  <pdb_header>  (86) 
CRYST1    1.000    1.000    1.000  90.00  90.00  90.00 P 1           1

>  <Predicted_Rank>  (86) 
87.0

$$$$
1uts_h
     RDKit          3D

 35 38  0  0  0  0  0  0  0  0999 V2000
    3.9300    7.9541   19.7889 N   0  0  0  0  0  0  0  0  0  0  0  0
    4.7283    5.8105   18.8915 C   0  0  0  0  0  0  0  0  0  0  0  0
    2.7556    2.5727   17.3506 C   0  0  0  0  0  0  0  0  0  0  0  0
    4.8438    4.3162   19.2060 C   0  0  0  0  0  0  0  0  0  0  0  0
    5.4068    3.6340   18.0757 O   0  0  0  0  0  0  0  0  0  0  0  0
    4.2975    6.5663   20.1499 C   0  0  0  0  0  0  0  0  0  0  0  0
    2.4173    2.2600   15.9435 N   0  0  0  0  0  0  0  0  0  0  0  0
    0.9437    2.1208   15.8017 C   0  0  0  0  0  0  0  0  0  0  0  0
    0.3385    3.4539   15.3524 C   0  0  0  0  0  0  0  0  0  0  0  0
   -1.0946    3.2623   15.0354 N   0  0  0  0  0  0  0  0  0  0  0  0
   -1.3519    3.7017   13.6338 C   0  0  0  0  0  0  0  0  0  0  0  0
   -1.9218    4.0545   15.9889 C   0  0  0  0  0  0  0  0  0  0  0  0
   -2.8404    3.5078   13.3021 C   0  0  0  0  0  0  0  0  0  0  0  0
   -3.4125    3.8640   15.6555 C   0  0  0  0  0  0  0  0  0  0  0  0
   -3.6681    4.3008   14.2547 N   0  0  0  0  0  0  0  0  0  0  0  0
    5.9939   -0.0320   18.7446 C   0  0  0  0  0  0  0  0  0  0  0  0
    3.7325   -6.0656   19.1553 N   0  0  0  0  0  0  0  0  0  0  0  0
    4.7288   -0.5793   18.4232 C   0  0  0  0  0  0  0  0  0  0  0  0
    3.6837    0.2704   17.9725 C   0  0  0  0  0  0  0  0  0  0  0  0
    3.9050    1.6688   17.8401 C   0  0  0  0  0  0  0  0  0  0  0  0
    5.1765    2.2208   18.1803 C   0  0  0  0  0  0  0  0  0  0  0  0
    6.2199    1.3649   18.6280 C   0  0  0  0  0  0  0  0  0  0  0  0
    3.1094   -5.9630   20.4198 C   0  0  0  0  0  0  0  0  0  0  0  0
    3.0712   -4.6194   20.8566 C   0  0  0  0  0  0  0  0  0  0  0  0
    3.8946   -2.4720   19.7276 C   0  0  0  0  0  0  0  0  0  0  0  0
    4.5177   -1.9588   18.5576 C   0  0  0  0  0  0  0  0  0  0  0  0
    4.9198   -2.8459   17.5214 C   0  0  0  0  0  0  0  0  0  0  0  0
    4.6968   -4.2430   17.6548 C   0  0  0  0  0  0  0  0  0  0  0  0
    4.0571   -4.7548   18.8270 C   0  0  0  0  0  0  0  0  0  0  0  0
    3.6592   -3.8788   19.8534 C   0  0  0  0  0  0  0  0  0  0  0  0
    3.8918   -6.8761   18.6264 H   0  0  0  0  0  0  0  0  0  0  0  0
    3.9223    8.5390   20.6364 H   0  0  0  0  0  0  0  0  0  0  0  0
    4.6185    8.3286   19.1207 H   0  0  0  0  0  0  0  0  0  0  0  0
    2.8763    1.3796   15.6682 H   0  0  0  0  0  0  0  0  0  0  0  0
   -4.6647    4.1645   14.0323 H   0  0  0  0  0  0  0  0  0  0  0  0
  1  6  1  0
  1 32  1  0
  1 33  1  0
  2  4  1  0
  2  6  1  0
  3  7  1  0
  3 20  1  0
  4  5  1  0
  5 21  1  0
  7  8  1  0
  7 34  1  0
  8  9  1  0
  9 10  1  0
 10 11  1  0
 10 12  1  0
 11 13  1  0
 12 14  1  0
 13 15  1  0
 14 15  1  0
 15 35  1  0
 16 18  2  0
 16 22  1  0
 17 23  1  0
 17 29  1  0
 17 31  1  0
 18 19  1  0
 18 26  1  0
 19 20  2  0
 20 21  1  0
 21 22  2  0
 23 24  2  0
 24 30  1  0
 25 26  2  0
 25 30  1  0
 26 27  1  0
 27 28  2  0
 28 29  1  0
 29 30  2  0
M  END
>  <CHROM.0>  (87) 
58.69307667,-86.23785070,-57.98386136

>  <CHROM.1>  (87) 
-162.68397421,-172.84900106,-168.97226946,132.54279528,-66.53564688,-163.48547989
79.02911613,94.61722414,172.33058087,-123.43901656,97.45671860,2.57710997
1.22236237,17.61599516,-2.15802160,0.55259213,3.08315663

>  <Name>  (87) 
1uts_h

>  <RI>  (87) 
3.0543e+07

>  <Rbt.Current_Directory>  (87) 
/home/jta30/NA_complexes/1uts

>  <Rbt.Executable>  (87) 
rbdock ($Id: //depot/dev/client3/rdock/2013.1/src/exe/rbdock.cxx#4 $)

>  <Rbt.Library>  (87) 
libRbt.so (2013.1, Build901 2013/11/27)

>  <Rbt.Parameter_File>  (87) 
/software/dev_tools/swtree/cs400_centos7.2_pe2016-08/rdock/2013.1/centos7.2_conda/build/data/scripts/dock.prm

>  <Rbt.Receptor>  (87) 
1uts.prm

>  <SCORE>  (87) 
-1.23506

>  <SCORE.INTER>  (87) 
-4.66243

>  <SCORE.INTER.CONST>  (87) 
1

>  <SCORE.INTER.POLAR>  (87) 
-1.21566

>  <SCORE.INTER.REPUL>  (87) 
0

>  <SCORE.INTER.ROT>  (87) 
11

>  <SCORE.INTER.VDW>  (87) 
-16.9292

>  <SCORE.INTER.norm>  (87) 
-0.155414

>  <SCORE.INTRA>  (87) 
-1.25598

>  <SCORE.INTRA.DIHEDRAL>  (87) 
-0.0212552

>  <SCORE.INTRA.DIHEDRAL.0>  (87) 
14.7121

>  <SCORE.INTRA.POLAR>  (87) 
0

>  <SCORE.INTRA.POLAR.0>  (87) 
0

>  <SCORE.INTRA.REPUL>  (87) 
0

>  <SCORE.INTRA.REPUL.0>  (87) 
0

>  <SCORE.INTRA.VDW>  (87) 
-1.24535

>  <SCORE.INTRA.VDW.0>  (87) 
-0.649219

>  <SCORE.INTRA.norm>  (87) 
-0.0418659

>  <SCORE.RESTR>  (87) 
0

>  <SCORE.RESTR.CAVITY>  (87) 
0

>  <SCORE.RESTR.norm>  (87) 
0

>  <SCORE.SYSTEM>  (87) 
4.68334

>  <SCORE.SYSTEM.CONST>  (87) 
0

>  <SCORE.SYSTEM.DIHEDRAL>  (87) 
3.11015

>  <SCORE.SYSTEM.POLAR>  (87) 
-0.87867

>  <SCORE.SYSTEM.REPUL>  (87) 
0.867057

>  <SCORE.SYSTEM.VDW>  (87) 
1.78046

>  <SCORE.SYSTEM.norm>  (87) 
0.156111

>  <SCORE.heavy>  (87) 
30

>  <SCORE.norm>  (87) 
-0.0411687

>  <pdb_header>  (87) 
CRYST1    1.000    1.000    1.000  90.00  90.00  90.00 P 1           1

>  <Predicted_Rank>  (87) 
88.0

$$$$
1uts_h
     RDKit          3D

 35 38  0  0  0  0  0  0  0  0999 V2000
    4.1813   -0.5949   17.8563 N   0  0  0  0  0  0  0  0  0  0  0  0
    2.2797    0.1357   16.4824 C   0  0  0  0  0  0  0  0  0  0  0  0
    1.1247    4.6909   16.5202 C   0  0  0  0  0  0  0  0  0  0  0  0
    2.3071    1.5475   17.0753 C   0  0  0  0  0  0  0  0  0  0  0  0
    0.9841    1.9137   17.4942 O   0  0  0  0  0  0  0  0  0  0  0  0
    3.6970   -0.4398   16.4660 C   0  0  0  0  0  0  0  0  0  0  0  0
    0.9732    4.6525   17.9925 N   0  0  0  0  0  0  0  0  0  0  0  0
    2.2659    5.0026   18.6384 C   0  0  0  0  0  0  0  0  0  0  0  0
    2.1959    6.4261   19.1990 C   0  0  0  0  0  0  0  0  0  0  0  0
    3.3589    6.6652   20.0829 N   0  0  0  0  0  0  0  0  0  0  0  0
    2.9879    6.3268   21.4871 C   0  0  0  0  0  0  0  0  0  0  0  0
    3.7697    8.0943   19.9834 C   0  0  0  0  0  0  0  0  0  0  0  0
    4.1924    6.5776   22.4088 C   0  0  0  0  0  0  0  0  0  0  0  0
    4.9734    8.3474   20.9088 C   0  0  0  0  0  0  0  0  0  0  0  0
    4.6029    8.0070   22.3107 N   0  0  0  0  0  0  0  0  0  0  0  0
   -1.4471    1.6938   14.6181 C   0  0  0  0  0  0  0  0  0  0  0  0
   -4.4607    4.3879    9.5998 N   0  0  0  0  0  0  0  0  0  0  0  0
   -1.4218    3.0223   14.1305 C   0  0  0  0  0  0  0  0  0  0  0  0
   -0.5866    3.9887   14.7518 C   0  0  0  0  0  0  0  0  0  0  0  0
    0.2268    3.6251   15.8601 C   0  0  0  0  0  0  0  0  0  0  0  0
    0.1875    2.2889   16.3604 C   0  0  0  0  0  0  0  0  0  0  0  0
   -0.6482    1.3251   15.7324 C   0  0  0  0  0  0  0  0  0  0  0  0
   -3.3870    4.4563    8.6831 C   0  0  0  0  0  0  0  0  0  0  0  0
   -2.1566    4.1891    9.3253 C   0  0  0  0  0  0  0  0  0  0  0  0
   -1.6390    3.6012   11.7647 C   0  0  0  0  0  0  0  0  0  0  0  0
   -2.2276    3.3737   13.0384 C   0  0  0  0  0  0  0  0  0  0  0  0
   -3.6350    3.4964   13.2010 C   0  0  0  0  0  0  0  0  0  0  0  0
   -4.4517    3.8436   12.0910 C   0  0  0  0  0  0  0  0  0  0  0  0
   -3.8581    4.0581   10.8078 C   0  0  0  0  0  0  0  0  0  0  0  0
   -2.4658    3.9378   10.6451 C   0  0  0  0  0  0  0  0  0  0  0  0
   -5.4144    4.5320    9.4219 H   0  0  0  0  0  0  0  0  0  0  0  0
    3.8529   -1.4940   18.2362 H   0  0  0  0  0  0  0  0  0  0  0  0
    5.2110   -0.5752   17.8651 H   0  0  0  0  0  0  0  0  0  0  0  0
    0.6862    3.7065   18.2830 H   0  0  0  0  0  0  0  0  0  0  0  0
    5.4129    8.1699   22.9259 H   0  0  0  0  0  0  0  0  0  0  0  0
  1  6  1  0
  1 32  1  0
  1 33  1  0
  2  4  1  0
  2  6  1  0
  3  7  1  0
  3 20  1  0
  4  5  1  0
  5 21  1  0
  7  8  1  0
  7 34  1  0
  8  9  1  0
  9 10  1  0
 10 11  1  0
 10 12  1  0
 11 13  1  0
 12 14  1  0
 13 15  1  0
 14 15  1  0
 15 35  1  0
 16 18  2  0
 16 22  1  0
 17 23  1  0
 17 29  1  0
 17 31  1  0
 18 19  1  0
 18 26  1  0
 19 20  2  0
 20 21  1  0
 21 22  2  0
 23 24  2  0
 24 30  1  0
 25 26  2  0
 25 30  1  0
 26 27  1  0
 27 28  2  0
 28 29  1  0
 29 30  2  0
M  END
>  <CHROM.0>  (88) 
-37.42963894,-87.69388864,55.68625441

>  <CHROM.1>  (88) 
84.72032885,-161.31642213,64.40366406,146.69358918,132.54238242,-77.59033372
-85.40797399,105.09066542,167.97433209,-92.27230099,-106.93952820,0.58648583
3.97345122,16.08345731,-0.45242025,0.88224705,-2.83732530

>  <Name>  (88) 
1uts_h

>  <RI>  (88) 
3.0543e+07

>  <Rbt.Current_Directory>  (88) 
/home/jta30/NA_complexes/1uts

>  <Rbt.Executable>  (88) 
rbdock ($Id: //depot/dev/client3/rdock/2013.1/src/exe/rbdock.cxx#4 $)

>  <Rbt.Library>  (88) 
libRbt.so (2013.1, Build901 2013/11/27)

>  <Rbt.Parameter_File>  (88) 
/software/dev_tools/swtree/cs400_centos7.2_pe2016-08/rdock/2013.1/centos7.2_conda/build/data/scripts/dock.prm

>  <Rbt.Receptor>  (88) 
1uts.prm

>  <SCORE>  (88) 
-1.9235

>  <SCORE.INTER>  (88) 
-6.12402

>  <SCORE.INTER.CONST>  (88) 
1

>  <SCORE.INTER.POLAR>  (88) 
0

>  <SCORE.INTER.REPUL>  (88) 
0

>  <SCORE.INTER.ROT>  (88) 
11

>  <SCORE.INTER.VDW>  (88) 
-22.524

>  <SCORE.INTER.norm>  (88) 
-0.204134

>  <SCORE.INTRA>  (88) 
-3.1219

>  <SCORE.INTRA.DIHEDRAL>  (88) 
0.361724

>  <SCORE.INTRA.DIHEDRAL.0>  (88) 
14.7121

>  <SCORE.INTRA.POLAR>  (88) 
-0.56799

>  <SCORE.INTRA.POLAR.0>  (88) 
0

>  <SCORE.INTRA.REPUL>  (88) 
0

>  <SCORE.INTRA.REPUL.0>  (88) 
0

>  <SCORE.INTRA.VDW>  (88) 
-1.37159

>  <SCORE.INTRA.VDW.0>  (88) 
-0.649219

>  <SCORE.INTRA.norm>  (88) 
-0.104063

>  <SCORE.RESTR>  (88) 
0

>  <SCORE.RESTR.CAVITY>  (88) 
0

>  <SCORE.RESTR.norm>  (88) 
0

>  <SCORE.SYSTEM>  (88) 
7.32242

>  <SCORE.SYSTEM.CONST>  (88) 
0

>  <SCORE.SYSTEM.DIHEDRAL>  (88) 
5.63178

>  <SCORE.SYSTEM.POLAR>  (88) 
-1.02143

>  <SCORE.SYSTEM.REPUL>  (88) 
1.23032

>  <SCORE.SYSTEM.VDW>  (88) 
1.82782

>  <SCORE.SYSTEM.norm>  (88) 
0.244081

>  <SCORE.heavy>  (88) 
30

>  <SCORE.norm>  (88) 
-0.0641166

>  <pdb_header>  (88) 
CRYST1    1.000    1.000    1.000  90.00  90.00  90.00 P 1           1

>  <Predicted_Rank>  (88) 
89.0

$$$$
1uts_h
     RDKit          3D

 35 38  0  0  0  0  0  0  0  0999 V2000
   -1.8247    3.0048   12.9232 N   0  0  0  0  0  0  0  0  0  0  0  0
   -1.3199    4.3399   14.9232 C   0  0  0  0  0  0  0  0  0  0  0  0
    0.4893    2.7262   19.3397 C   0  0  0  0  0  0  0  0  0  0  0  0
   -0.1040    3.4461   15.1839 C   0  0  0  0  0  0  0  0  0  0  0  0
    0.3369    3.6251   16.5379 O   0  0  0  0  0  0  0  0  0  0  0  0
   -1.6113    4.3822   13.4220 C   0  0  0  0  0  0  0  0  0  0  0  0
    0.3153    4.1857   19.1616 N   0  0  0  0  0  0  0  0  0  0  0  0
   -0.1141    4.7993   20.4462 C   0  0  0  0  0  0  0  0  0  0  0  0
    1.1155    5.2361   21.2480 C   0  0  0  0  0  0  0  0  0  0  0  0
    2.0796    5.9050   20.3458 N   0  0  0  0  0  0  0  0  0  0  0  0
    3.4417    5.3440   20.5777 C   0  0  0  0  0  0  0  0  0  0  0  0
    2.0690    7.3715   20.6112 C   0  0  0  0  0  0  0  0  0  0  0  0
    4.4467    6.0393   19.6450 C   0  0  0  0  0  0  0  0  0  0  0  0
    3.0777    8.0683   19.6803 C   0  0  0  0  0  0  0  0  0  0  0  0
    4.4374    7.5058   19.9108 N   0  0  0  0  0  0  0  0  0  0  0  0
    3.1064    1.0820   16.2313 C   0  0  0  0  0  0  0  0  0  0  0  0
    6.9698   -3.2718   19.0939 N   0  0  0  0  0  0  0  0  0  0  0  0
    3.2238    0.6360   17.5694 C   0  0  0  0  0  0  0  0  0  0  0  0
    2.3729    1.1733   18.5719 C   0  0  0  0  0  0  0  0  0  0  0  0
    1.4014    2.1555   18.2350 C   0  0  0  0  0  0  0  0  0  0  0  0
    1.2958    2.6157   16.8881 C   0  0  0  0  0  0  0  0  0  0  0  0
    2.1482    2.0720   15.8883 C   0  0  0  0  0  0  0  0  0  0  0  0
    6.6321   -3.3120   20.4658 C   0  0  0  0  0  0  0  0  0  0  0  0
    5.6024   -2.3896   20.7599 C   0  0  0  0  0  0  0  0  0  0  0  0
    4.3190   -0.7777   19.2372 C   0  0  0  0  0  0  0  0  0  0  0  0
    4.1849   -0.3316   17.8943 C   0  0  0  0  0  0  0  0  0  0  0  0
    5.0222   -0.8732   16.8805 C   0  0  0  0  0  0  0  0  0  0  0  0
    5.9898   -1.8607   17.2094 C   0  0  0  0  0  0  0  0  0  0  0  0
    6.1128   -2.3175   18.5590 C   0  0  0  0  0  0  0  0  0  0  0  0
    5.2857   -1.7823   19.5634 C   0  0  0  0  0  0  0  0  0  0  0  0
    7.6483   -3.8025   18.6250 H   0  0  0  0  0  0  0  0  0  0  0  0
   -2.2720    3.0405   11.9963 H   0  0  0  0  0  0  0  0  0  0  0  0
   -0.9176    2.5230   12.8472 H   0  0  0  0  0  0  0  0  0  0  0  0
   -0.3983    4.3600   18.4391 H   0  0  0  0  0  0  0  0  0  0  0  0
    5.1084    7.9685   19.2808 H   0  0  0  0  0  0  0  0  0  0  0  0
  1  6  1  0
  1 32  1  0
  1 33  1  0
  2  4  1  0
  2  6  1  0
  3  7  1  0
  3 20  1  0
  4  5  1  0
  5 21  1  0
  7  8  1  0
  7 34  1  0
  8  9  1  0
  9 10  1  0
 10 11  1  0
 10 12  1  0
 11 13  1  0
 12 14  1  0
 13 15  1  0
 14 15  1  0
 15 35  1  0
 16 18  2  0
 16 22  1  0
 17 23  1  0
 17 29  1  0
 17 31  1  0
 18 19  1  0
 18 26  1  0
 19 20  2  0
 20 21  1  0
 21 22  2  0
 23 24  2  0
 24 30  1  0
 25 26  2  0
 25 30  1  0
 26 27  1  0
 27 28  2  0
 28 29  1  0
 29 30  2  0
M  END
>  <CHROM.0>  (89) 
57.99149700,65.79325894,-53.43978830

>  <CHROM.1>  (89) 
164.32364058,168.09535572,57.13377850,-159.19872587,139.25398739,168.53700979
-149.52306998,90.64078516,43.79022183,-132.16821288,179.44490869,2.56463661
2.48789185,18.20653657,2.46968068,-0.78252595,0.56910769

>  <Name>  (89) 
1uts_h

>  <RI>  (89) 
3.0543e+07

>  <Rbt.Current_Directory>  (89) 
/home/jta30/NA_complexes/1uts

>  <Rbt.Executable>  (89) 
rbdock ($Id: //depot/dev/client3/rdock/2013.1/src/exe/rbdock.cxx#4 $)

>  <Rbt.Library>  (89) 
libRbt.so (2013.1, Build901 2013/11/27)

>  <Rbt.Parameter_File>  (89) 
/software/dev_tools/swtree/cs400_centos7.2_pe2016-08/rdock/2013.1/centos7.2_conda/build/data/scripts/dock.prm

>  <Rbt.Receptor>  (89) 
1uts.prm

>  <SCORE>  (89) 
-3.32646

>  <SCORE.INTER>  (89) 
-3.80652

>  <SCORE.INTER.CONST>  (89) 
1

>  <SCORE.INTER.POLAR>  (89) 
-1.6359

>  <SCORE.INTER.REPUL>  (89) 
0

>  <SCORE.INTER.ROT>  (89) 
11

>  <SCORE.INTER.VDW>  (89) 
-14.6445

>  <SCORE.INTER.norm>  (89) 
-0.126884

>  <SCORE.INTRA>  (89) 
-0.860433

>  <SCORE.INTRA.DIHEDRAL>  (89) 
-2.07673

>  <SCORE.INTRA.DIHEDRAL.0>  (89) 
14.7121

>  <SCORE.INTRA.POLAR>  (89) 
-0.168192

>  <SCORE.INTRA.POLAR.0>  (89) 
0

>  <SCORE.INTRA.REPUL>  (89) 
0.0217341

>  <SCORE.INTRA.REPUL.0>  (89) 
0

>  <SCORE.INTRA.VDW>  (89) 
0.641111

>  <SCORE.INTRA.VDW.0>  (89) 
-0.649219

>  <SCORE.INTRA.norm>  (89) 
-0.0286811

>  <SCORE.RESTR>  (89) 
0

>  <SCORE.RESTR.CAVITY>  (89) 
0

>  <SCORE.RESTR.norm>  (89) 
0

>  <SCORE.SYSTEM>  (89) 
1.34049

>  <SCORE.SYSTEM.CONST>  (89) 
0

>  <SCORE.SYSTEM.DIHEDRAL>  (89) 
0.629135

>  <SCORE.SYSTEM.POLAR>  (89) 
-0.0927276

>  <SCORE.SYSTEM.REPUL>  (89) 
0.454912

>  <SCORE.SYSTEM.VDW>  (89) 
-0.933365

>  <SCORE.SYSTEM.norm>  (89) 
0.044683

>  <SCORE.heavy>  (89) 
30

>  <SCORE.norm>  (89) 
-0.110882

>  <pdb_header>  (89) 
CRYST1    1.000    1.000    1.000  90.00  90.00  90.00 P 1           1

>  <Predicted_Rank>  (89) 
90.0

$$$$
1uts_h
     RDKit          3D

 35 38  0  0  0  0  0  0  0  0999 V2000
   -6.8461    3.7602   15.1269 N   0  0  0  0  0  0  0  0  0  0  0  0
   -4.9064    3.1914   16.5237 C   0  0  0  0  0  0  0  0  0  0  0  0
   -1.1127    0.8886   15.1680 C   0  0  0  0  0  0  0  0  0  0  0  0
   -4.3442    2.0843   15.6273 C   0  0  0  0  0  0  0  0  0  0  0  0
   -3.4215    2.6549   14.6877 O   0  0  0  0  0  0  0  0  0  0  0  0
   -5.5607    4.2686   15.6568 C   0  0  0  0  0  0  0  0  0  0  0  0
   -0.6909    0.0103   16.2828 N   0  0  0  0  0  0  0  0  0  0  0  0
    0.3493   -0.9393   15.8062 C   0  0  0  0  0  0  0  0  0  0  0  0
    1.7375   -0.3154   15.9773 C   0  0  0  0  0  0  0  0  0  0  0  0
    1.9156    0.1118   17.3833 N   0  0  0  0  0  0  0  0  0  0  0  0
    2.8182    1.2981   17.4268 C   0  0  0  0  0  0  0  0  0  0  0  0
    2.4956   -1.0121   18.1715 C   0  0  0  0  0  0  0  0  0  0  0  0
    3.0086    1.7424   18.8861 C   0  0  0  0  0  0  0  0  0  0  0  0
    2.6903   -0.5672   19.6322 C   0  0  0  0  0  0  0  0  0  0  0  0
    3.5898    0.6191   19.6747 N   0  0  0  0  0  0  0  0  0  0  0  0
   -1.1502    5.0675   16.4911 C   0  0  0  0  0  0  0  0  0  0  0  0
    4.5176    6.3076   19.3490 N   0  0  0  0  0  0  0  0  0  0  0  0
   -0.0282    4.2468   16.7573 C   0  0  0  0  0  0  0  0  0  0  0  0
   -0.0227    2.8934   16.3262 C   0  0  0  0  0  0  0  0  0  0  0  0
   -1.1395    2.3611   15.6253 C   0  0  0  0  0  0  0  0  0  0  0  0
   -2.2766    3.1858   15.3721 C   0  0  0  0  0  0  0  0  0  0  0  0
   -2.2751    4.5406   15.8033 C   0  0  0  0  0  0  0  0  0  0  0  0
    5.4840    5.7125   18.5067 C   0  0  0  0  0  0  0  0  0  0  0  0
    4.8676    4.9237   17.5090 C   0  0  0  0  0  0  0  0  0  0  0  0
    2.3914    4.4779   17.0254 C   0  0  0  0  0  0  0  0  0  0  0  0
    1.0686    4.7783   17.4503 C   0  0  0  0  0  0  0  0  0  0  0  0
    0.8600    5.6239   18.5744 C   0  0  0  0  0  0  0  0  0  0  0  0
    1.9725    6.1694   19.2703 C   0  0  0  0  0  0  0  0  0  0  0  0
    3.3018    5.8766   18.8320 C   0  0  0  0  0  0  0  0  0  0  0  0
    3.5102    5.0397   17.7204 C   0  0  0  0  0  0  0  0  0  0  0  0
    4.6701    6.8973   20.1178 H   0  0  0  0  0  0  0  0  0  0  0  0
   -7.4101    4.5485   14.7789 H   0  0  0  0  0  0  0  0  0  0  0  0
   -6.6632    3.1032   14.3551 H   0  0  0  0  0  0  0  0  0  0  0  0
   -1.5055   -0.5153   16.6320 H   0  0  0  0  0  0  0  0  0  0  0  0
    3.7115    0.9190   20.6526 H   0  0  0  0  0  0  0  0  0  0  0  0
  1  6  1  0
  1 32  1  0
  1 33  1  0
  2  4  1  0
  2  6  1  0
  3  7  1  0
  3 20  1  0
  4  5  1  0
  5 21  1  0
  7  8  1  0
  7 34  1  0
  8  9  1  0
  9 10  1  0
 10 11  1  0
 10 12  1  0
 11 13  1  0
 12 14  1  0
 13 15  1  0
 14 15  1  0
 15 35  1  0
 16 18  2  0
 16 22  1  0
 17 23  1  0
 17 29  1  0
 17 31  1  0
 18 19  1  0
 18 26  1  0
 19 20  2  0
 20 21  1  0
 21 22  2  0
 23 24  2  0
 24 30  1  0
 25 26  2  0
 25 30  1  0
 26 27  1  0
 27 28  2  0
 28 29  1  0
 29 30  2  0
M  END
>  <CHROM.0>  (90) 
-37.59035055,-87.57063881,-57.13349210

>  <CHROM.1>  (90) 
163.81014168,56.78811554,73.65092342,-132.79981802,48.31871547,65.35033079
89.31510825,89.14152515,54.36471843,-149.38620095,-137.71498150,0.33079348
2.84774380,17.06869257,3.04904778,0.36931186,-3.04351993

>  <Name>  (90) 
1uts_h

>  <RI>  (90) 
3.0543e+07

>  <Rbt.Current_Directory>  (90) 
/home/jta30/NA_complexes/1uts

>  <Rbt.Executable>  (90) 
rbdock ($Id: //depot/dev/client3/rdock/2013.1/src/exe/rbdock.cxx#4 $)

>  <Rbt.Library>  (90) 
libRbt.so (2013.1, Build901 2013/11/27)

>  <Rbt.Parameter_File>  (90) 
/software/dev_tools/swtree/cs400_centos7.2_pe2016-08/rdock/2013.1/centos7.2_conda/build/data/scripts/dock.prm

>  <Rbt.Receptor>  (90) 
1uts.prm

>  <SCORE>  (90) 
-1.09739

>  <SCORE.INTER>  (90) 
-3.16728

>  <SCORE.INTER.CONST>  (90) 
1

>  <SCORE.INTER.POLAR>  (90) 
-0.887464

>  <SCORE.INTER.REPUL>  (90) 
0

>  <SCORE.INTER.ROT>  (90) 
11

>  <SCORE.INTER.VDW>  (90) 
-16.5499

>  <SCORE.INTER.norm>  (90) 
-0.105576

>  <SCORE.INTRA>  (90) 
-3.47206

>  <SCORE.INTRA.DIHEDRAL>  (90) 
-2.74039

>  <SCORE.INTRA.DIHEDRAL.0>  (90) 
14.7121

>  <SCORE.INTRA.POLAR>  (90) 
0

>  <SCORE.INTRA.POLAR.0>  (90) 
0

>  <SCORE.INTRA.REPUL>  (90) 
0

>  <SCORE.INTRA.REPUL.0>  (90) 
0

>  <SCORE.INTRA.VDW>  (90) 
-2.10187

>  <SCORE.INTRA.VDW.0>  (90) 
-0.649219

>  <SCORE.INTRA.norm>  (90) 
-0.115735

>  <SCORE.RESTR>  (90) 
0

>  <SCORE.RESTR.CAVITY>  (90) 
0

>  <SCORE.RESTR.norm>  (90) 
0

>  <SCORE.SYSTEM>  (90) 
5.54195

>  <SCORE.SYSTEM.CONST>  (90) 
0

>  <SCORE.SYSTEM.DIHEDRAL>  (90) 
5.53228

>  <SCORE.SYSTEM.POLAR>  (90) 
-1.01802

>  <SCORE.SYSTEM.REPUL>  (90) 
0.867278

>  <SCORE.SYSTEM.VDW>  (90) 
1.9007

>  <SCORE.SYSTEM.norm>  (90) 
0.184732

>  <SCORE.heavy>  (90) 
30

>  <SCORE.norm>  (90) 
-0.0365798

>  <pdb_header>  (90) 
CRYST1    1.000    1.000    1.000  90.00  90.00  90.00 P 1           1

>  <Predicted_Rank>  (90) 
91.0

$$$$
1uts_h
     RDKit          3D

 35 38  0  0  0  0  0  0  0  0999 V2000
    4.3501   -0.3573   16.7079 N   0  0  0  0  0  0  0  0  0  0  0  0
    1.9351   -0.0284   16.3962 C   0  0  0  0  0  0  0  0  0  0  0  0
    1.2169    4.2739   16.0771 C   0  0  0  0  0  0  0  0  0  0  0  0
    0.6281    0.2550   17.1422 C   0  0  0  0  0  0  0  0  0  0  0  0
    0.4122    1.6726   17.2027 O   0  0  0  0  0  0  0  0  0  0  0  0
    3.1180    0.1554   17.3487 C   0  0  0  0  0  0  0  0  0  0  0  0
    0.9858    4.3819   17.5355 N   0  0  0  0  0  0  0  0  0  0  0  0
    2.1769    4.9875   18.1878 C   0  0  0  0  0  0  0  0  0  0  0  0
    3.2237    3.9040   18.4628 C   0  0  0  0  0  0  0  0  0  0  0  0
    4.4029    4.5132   19.1179 N   0  0  0  0  0  0  0  0  0  0  0  0
    5.2578    5.1656   18.0848 C   0  0  0  0  0  0  0  0  0  0  0  0
    5.1700    3.4566   19.8362 C   0  0  0  0  0  0  0  0  0  0  0  0
    6.4858    5.7963   18.7612 C   0  0  0  0  0  0  0  0  0  0  0  0
    6.4020    4.0864   20.5108 C   0  0  0  0  0  0  0  0  0  0  0  0
    7.2541    4.7398   19.4787 N   0  0  0  0  0  0  0  0  0  0  0  0
   -1.8667    1.7884   14.1986 C   0  0  0  0  0  0  0  0  0  0  0  0
   -4.3514    4.8380    9.1205 N   0  0  0  0  0  0  0  0  0  0  0  0
   -1.5217    3.0405   13.6360 C   0  0  0  0  0  0  0  0  0  0  0  0
   -0.5219    3.8411   14.2500 C   0  0  0  0  0  0  0  0  0  0  0  0
    0.1357    3.3875   15.4263 C   0  0  0  0  0  0  0  0  0  0  0  0
   -0.2253    2.1320   16.0012 C   0  0  0  0  0  0  0  0  0  0  0  0
   -1.2246    1.3335   15.3804 C   0  0  0  0  0  0  0  0  0  0  0  0
   -5.6454    4.7641    9.6842 C   0  0  0  0  0  0  0  0  0  0  0  0
   -5.5915    4.2812   11.0114 C   0  0  0  0  0  0  0  0  0  0  0  0
   -3.5922    3.5953   12.4592 C   0  0  0  0  0  0  0  0  0  0  0  0
   -2.1754    3.4817   12.4769 C   0  0  0  0  0  0  0  0  0  0  0  0
   -1.4225    3.8229   11.3197 C   0  0  0  0  0  0  0  0  0  0  0  0
   -2.0857    4.2788   10.1485 C   0  0  0  0  0  0  0  0  0  0  0  0
   -3.5101    4.4052   10.1384 C   0  0  0  0  0  0  0  0  0  0  0  0
   -4.2567    4.0676   11.2821 C   0  0  0  0  0  0  0  0  0  0  0  0
   -4.1031    5.1351    8.2193 H   0  0  0  0  0  0  0  0  0  0  0  0
    4.1596   -1.2760   16.2831 H   0  0  0  0  0  0  0  0  0  0  0  0
    4.6562    0.3008   15.9772 H   0  0  0  0  0  0  0  0  0  0  0  0
    0.8169    3.4435   17.9261 H   0  0  0  0  0  0  0  0  0  0  0  0
    8.0732    5.1670   19.9344 H   0  0  0  0  0  0  0  0  0  0  0  0
  1  6  1  0
  1 32  1  0
  1 33  1  0
  2  4  1  0
  2  6  1  0
  3  7  1  0
  3 20  1  0
  4  5  1  0
  5 21  1  0
  7  8  1  0
  7 34  1  0
  8  9  1  0
  9 10  1  0
 10 11  1  0
 10 12  1  0
 11 13  1  0
 12 14  1  0
 13 15  1  0
 14 15  1  0
 15 35  1  0
 16 18  2  0
 16 22  1  0
 17 23  1  0
 17 29  1  0
 17 31  1  0
 18 19  1  0
 18 26  1  0
 19 20  2  0
 20 21  1  0
 21 22  2  0
 23 24  2  0
 24 30  1  0
 25 26  2  0
 25 30  1  0
 26 27  1  0
 27 28  2  0
 28 29  1  0
 29 30  2  0
M  END
>  <CHROM.0>  (91) 
-37.70360108,162.57588522,53.73735478

>  <CHROM.1>  (91) 
-45.97356067,80.96866305,169.56497768,168.06486226,132.19373288,84.49852456
-142.07659525,-83.82435534,-179.72296017,-80.17469264,56.64464950,0.73722407
3.30951278,15.44265705,0.21495420,0.71012402,2.86232696

>  <Name>  (91) 
1uts_h

>  <RI>  (91) 
3.0543e+07

>  <Rbt.Current_Directory>  (91) 
/home/jta30/NA_complexes/1uts

>  <Rbt.Executable>  (91) 
rbdock ($Id: //depot/dev/client3/rdock/2013.1/src/exe/rbdock.cxx#4 $)

>  <Rbt.Library>  (91) 
libRbt.so (2013.1, Build901 2013/11/27)

>  <Rbt.Parameter_File>  (91) 
/software/dev_tools/swtree/cs400_centos7.2_pe2016-08/rdock/2013.1/centos7.2_conda/build/data/scripts/dock.prm

>  <Rbt.Receptor>  (91) 
1uts.prm

>  <SCORE>  (91) 
-8.70522

>  <SCORE.INTER>  (91) 
-9.78

>  <SCORE.INTER.CONST>  (91) 
1

>  <SCORE.INTER.POLAR>  (91) 
-0.791597

>  <SCORE.INTER.REPUL>  (91) 
0

>  <SCORE.INTER.ROT>  (91) 
11

>  <SCORE.INTER.VDW>  (91) 
-23.4886

>  <SCORE.INTER.norm>  (91) 
-0.326

>  <SCORE.INTRA>  (91) 
-3.1642

>  <SCORE.INTRA.DIHEDRAL>  (91) 
-2.13957

>  <SCORE.INTRA.DIHEDRAL.0>  (91) 
14.7121

>  <SCORE.INTRA.POLAR>  (91) 
-0.71861

>  <SCORE.INTRA.POLAR.0>  (91) 
0

>  <SCORE.INTRA.REPUL>  (91) 
0

>  <SCORE.INTRA.REPUL.0>  (91) 
0

>  <SCORE.INTRA.VDW>  (91) 
0.348859

>  <SCORE.INTRA.VDW.0>  (91) 
-0.649219

>  <SCORE.INTRA.norm>  (91) 
-0.105473

>  <SCORE.RESTR>  (91) 
0

>  <SCORE.RESTR.CAVITY>  (91) 
0

>  <SCORE.RESTR.norm>  (91) 
0

>  <SCORE.SYSTEM>  (91) 
4.23899

>  <SCORE.SYSTEM.CONST>  (91) 
0

>  <SCORE.SYSTEM.DIHEDRAL>  (91) 
3.94826

>  <SCORE.SYSTEM.POLAR>  (91) 
-0.120112

>  <SCORE.SYSTEM.REPUL>  (91) 
0.514215

>  <SCORE.SYSTEM.VDW>  (91) 
0.102161

>  <SCORE.SYSTEM.norm>  (91) 
0.1413

>  <SCORE.heavy>  (91) 
30

>  <SCORE.norm>  (91) 
-0.290174

>  <pdb_header>  (91) 
CRYST1    1.000    1.000    1.000  90.00  90.00  90.00 P 1           1

>  <Predicted_Rank>  (91) 
92.0

$$$$
1uts_h
     RDKit          3D

 35 38  0  0  0  0  0  0  0  0999 V2000
   -2.0091    5.0952   13.1121 N   0  0  0  0  0  0  0  0  0  0  0  0
   -3.8398    3.6956   13.9647 C   0  0  0  0  0  0  0  0  0  0  0  0
   -2.8765    3.3141   17.8349 C   0  0  0  0  0  0  0  0  0  0  0  0
   -4.4388    3.2130   15.2889 C   0  0  0  0  0  0  0  0  0  0  0  0
   -4.0179    1.8637   15.5382 O   0  0  0  0  0  0  0  0  0  0  0  0
   -2.4020    4.1650   14.1946 C   0  0  0  0  0  0  0  0  0  0  0  0
   -2.2560    4.6301   18.1092 N   0  0  0  0  0  0  0  0  0  0  0  0
   -1.9371    4.7415   19.5572 C   0  0  0  0  0  0  0  0  0  0  0  0
   -0.6929    5.6139   19.7478 C   0  0  0  0  0  0  0  0  0  0  0  0
    0.4753    4.9477   19.1293 N   0  0  0  0  0  0  0  0  0  0  0  0
    0.9700    3.8756   20.0401 C   0  0  0  0  0  0  0  0  0  0  0  0
    1.5453    5.9552   18.8825 C   0  0  0  0  0  0  0  0  0  0  0  0
    2.1859    3.1838   19.4026 C   0  0  0  0  0  0  0  0  0  0  0  0
    2.7648    5.2630   18.2475 C   0  0  0  0  0  0  0  0  0  0  0  0
    3.2569    4.1908   19.1566 N   0  0  0  0  0  0  0  0  0  0  0  0
   -0.3698    1.0334   15.0547 C   0  0  0  0  0  0  0  0  0  0  0  0
    5.8034    1.8182   16.8016 N   0  0  0  0  0  0  0  0  0  0  0  0
    0.2198    1.7313   16.1357 C   0  0  0  0  0  0  0  0  0  0  0  0
   -0.5982    2.4688   17.0326 C   0  0  0  0  0  0  0  0  0  0  0  0
   -2.0079    2.5058   16.8500 C   0  0  0  0  0  0  0  0  0  0  0  0
   -2.5987    1.8147   15.7498 C   0  0  0  0  0  0  0  0  0  0  0  0
   -1.7752    1.0755   14.8570 C   0  0  0  0  0  0  0  0  0  0  0  0
    6.0088    3.1522   16.3821 C   0  0  0  0  0  0  0  0  0  0  0  0
    4.7885    3.7563   16.0031 C   0  0  0  0  0  0  0  0  0  0  0  0
    2.3980    2.8347   16.0032 C   0  0  0  0  0  0  0  0  0  0  0  0
    1.6105    1.6914   16.3085 C   0  0  0  0  0  0  0  0  0  0  0  0
    2.2348    0.5103   16.7958 C   0  0  0  0  0  0  0  0  0  0  0  0
    3.6436    0.4742   16.9793 C   0  0  0  0  0  0  0  0  0  0  0  0
    4.4314    1.6307   16.6845 C   0  0  0  0  0  0  0  0  0  0  0  0
    3.8156    2.7999   16.2017 C   0  0  0  0  0  0  0  0  0  0  0  0
    6.4750    1.1746   17.1126 H   0  0  0  0  0  0  0  0  0  0  0  0
   -2.5770    5.9522   13.1727 H   0  0  0  0  0  0  0  0  0  0  0  0
   -1.0130    5.3369   13.2122 H   0  0  0  0  0  0  0  0  0  0  0  0
   -2.9095    5.3799   17.8400 H   0  0  0  0  0  0  0  0  0  0  0  0
    4.0677    3.7244   18.7252 H   0  0  0  0  0  0  0  0  0  0  0  0
  1  6  1  0
  1 32  1  0
  1 33  1  0
  2  4  1  0
  2  6  1  0
  3  7  1  0
  3 20  1  0
  4  5  1  0
  5 21  1  0
  7  8  1  0
  7 34  1  0
  8  9  1  0
  9 10  1  0
 10 11  1  0
 10 12  1  0
 11 13  1  0
 12 14  1  0
 13 15  1  0
 14 15  1  0
 15 35  1  0
 16 18  2  0
 16 22  1  0
 17 23  1  0
 17 29  1  0
 17 31  1  0
 18 19  1  0
 18 26  1  0
 19 20  2  0
 20 21  1  0
 21 22  2  0
 23 24  2  0
 24 30  1  0
 25 26  2  0
 25 30  1  0
 26 27  1  0
 27 28  2  0
 28 29  1  0
 29 30  2  0
M  END
>  <CHROM.0>  (92) 
30.48450497,-88.33463828,54.87465432

>  <CHROM.1>  (92) 
65.76374870,-81.96804630,-157.80232325,-118.64976446,44.10762636,65.71518621
62.29854748,148.54996892,-64.36470471,-78.73872981,106.71189120,0.38332633
3.19088520,16.89674755,-2.97361736,-0.18894243,0.95228143

>  <Name>  (92) 
1uts_h

>  <RI>  (92) 
3.0543e+07

>  <Rbt.Current_Directory>  (92) 
/home/jta30/NA_complexes/1uts

>  <Rbt.Executable>  (92) 
rbdock ($Id: //depot/dev/client3/rdock/2013.1/src/exe/rbdock.cxx#4 $)

>  <Rbt.Library>  (92) 
libRbt.so (2013.1, Build901 2013/11/27)

>  <Rbt.Parameter_File>  (92) 
/software/dev_tools/swtree/cs400_centos7.2_pe2016-08/rdock/2013.1/centos7.2_conda/build/data/scripts/dock.prm

>  <Rbt.Receptor>  (92) 
1uts.prm

>  <SCORE>  (92) 
-4.30053

>  <SCORE.INTER>  (92) 
-8.7211

>  <SCORE.INTER.CONST>  (92) 
1

>  <SCORE.INTER.POLAR>  (92) 
-1.91117

>  <SCORE.INTER.REPUL>  (92) 
0.00770463

>  <SCORE.INTER.ROT>  (92) 
11

>  <SCORE.INTER.VDW>  (92) 
-18.6617

>  <SCORE.INTER.norm>  (92) 
-0.290703

>  <SCORE.INTRA>  (92) 
-3.07455

>  <SCORE.INTRA.DIHEDRAL>  (92) 
-0.777444

>  <SCORE.INTRA.DIHEDRAL.0>  (92) 
14.7121

>  <SCORE.INTRA.POLAR>  (92) 
0

>  <SCORE.INTRA.POLAR.0>  (92) 
0

>  <SCORE.INTRA.REPUL>  (92) 
0

>  <SCORE.INTRA.REPUL.0>  (92) 
0

>  <SCORE.INTRA.VDW>  (92) 
-2.68583

>  <SCORE.INTRA.VDW.0>  (92) 
-0.649219

>  <SCORE.INTRA.norm>  (92) 
-0.102485

>  <SCORE.RESTR>  (92) 
0

>  <SCORE.RESTR.CAVITY>  (92) 
0

>  <SCORE.RESTR.norm>  (92) 
0

>  <SCORE.SYSTEM>  (92) 
7.49512

>  <SCORE.SYSTEM.CONST>  (92) 
0

>  <SCORE.SYSTEM.DIHEDRAL>  (92) 
7.03736

>  <SCORE.SYSTEM.POLAR>  (92) 
-1.12311

>  <SCORE.SYSTEM.REPUL>  (92) 
1.23516

>  <SCORE.SYSTEM.VDW>  (92) 
1.61922

>  <SCORE.SYSTEM.norm>  (92) 
0.249837

>  <SCORE.heavy>  (92) 
30

>  <SCORE.norm>  (92) 
-0.143351

>  <pdb_header>  (92) 
CRYST1    1.000    1.000    1.000  90.00  90.00  90.00 P 1           1

>  <Predicted_Rank>  (92) 
93.0

$$$$
1uts_h
     RDKit          3D

 35 38  0  0  0  0  0  0  0  0999 V2000
   -3.2738    6.4118   11.1227 N   0  0  0  0  0  0  0  0  0  0  0  0
   -3.0574    4.1512   12.0608 C   0  0  0  0  0  0  0  0  0  0  0  0
   -0.9842    1.2608   15.0847 C   0  0  0  0  0  0  0  0  0  0  0  0
   -2.1114    4.4122   13.2365 C   0  0  0  0  0  0  0  0  0  0  0  0
   -2.5473    3.6555   14.3754 O   0  0  0  0  0  0  0  0  0  0  0  0
   -2.6900    5.0707   10.8947 C   0  0  0  0  0  0  0  0  0  0  0  0
    0.2551    0.4568   15.1843 N   0  0  0  0  0  0  0  0  0  0  0  0
    0.1881   -0.4204   16.3830 C   0  0  0  0  0  0  0  0  0  0  0  0
    1.2617   -1.5085   16.2891 C   0  0  0  0  0  0  0  0  0  0  0  0
    1.2740   -2.2978   17.5413 N   0  0  0  0  0  0  0  0  0  0  0  0
    2.2840   -1.7228   18.4757 C   0  0  0  0  0  0  0  0  0  0  0  0
    1.6041   -3.7168   17.2277 C   0  0  0  0  0  0  0  0  0  0  0  0
    2.3024   -2.5424   19.7761 C   0  0  0  0  0  0  0  0  0  0  0  0
    1.6264   -4.5378   18.5296 C   0  0  0  0  0  0  0  0  0  0  0  0
    2.6336   -3.9615   19.4633 N   0  0  0  0  0  0  0  0  0  0  0  0
   -0.4574    5.0770   17.1760 C   0  0  0  0  0  0  0  0  0  0  0  0
    3.8755    4.1716   21.8949 N   0  0  0  0  0  0  0  0  0  0  0  0
    0.3007    3.9449   17.5593 C   0  0  0  0  0  0  0  0  0  0  0  0
    0.1247    2.7112   16.8778 C   0  0  0  0  0  0  0  0  0  0  0  0
   -0.8083    2.6105   15.8095 C   0  0  0  0  0  0  0  0  0  0  0  0
   -1.5835    3.7490   15.4353 C   0  0  0  0  0  0  0  0  0  0  0  0
   -1.4008    4.9821   16.1191 C   0  0  0  0  0  0  0  0  0  0  0  0
    3.2101    3.2360   22.7193 C   0  0  0  0  0  0  0  0  0  0  0  0
    2.0365    2.7568   22.0944 C   0  0  0  0  0  0  0  0  0  0  0  0
    1.0280    3.2917   19.8007 C   0  0  0  0  0  0  0  0  0  0  0  0
    1.2177    4.0516   18.6145 C   0  0  0  0  0  0  0  0  0  0  0  0
    2.3422    4.9142   18.4974 C   0  0  0  0  0  0  0  0  0  0  0  0
    3.2759    5.0143   19.5640 C   0  0  0  0  0  0  0  0  0  0  0  0
    3.0898    4.2381   20.7506 C   0  0  0  0  0  0  0  0  0  0  0  0
    1.9776    3.3847   20.8685 C   0  0  0  0  0  0  0  0  0  0  0  0
    4.7067    4.6568   22.0840 H   0  0  0  0  0  0  0  0  0  0  0  0
   -3.0343    6.7341   12.0711 H   0  0  0  0  0  0  0  0  0  0  0  0
   -2.8944    7.0734   10.4305 H   0  0  0  0  0  0  0  0  0  0  0  0
    1.0669    1.0866   15.2612 H   0  0  0  0  0  0  0  0  0  0  0  0
    2.6403   -4.5082   20.3363 H   0  0  0  0  0  0  0  0  0  0  0  0
  1  6  1  0
  1 32  1  0
  1 33  1  0
  2  4  1  0
  2  6  1  0
  3  7  1  0
  3 20  1  0
  4  5  1  0
  5 21  1  0
  7  8  1  0
  7 34  1  0
  8  9  1  0
  9 10  1  0
 10 11  1  0
 10 12  1  0
 11 13  1  0
 12 14  1  0
 13 15  1  0
 14 15  1  0
 15 35  1  0
 16 18  2  0
 16 22  1  0
 17 23  1  0
 17 29  1  0
 17 31  1  0
 18 19  1  0
 18 26  1  0
 19 20  2  0
 20 21  1  0
 21 22  2  0
 23 24  2  0
 24 30  1  0
 25 26  2  0
 25 30  1  0
 26 27  1  0
 27 28  2  0
 28 29  1  0
 29 30  2  0
M  END
>  <CHROM.0>  (93) 
59.17327762,63.05266508,-57.90607505

>  <CHROM.1>  (93) 
50.21617315,173.78087413,-80.92537190,91.64221578,-26.41252895,172.64876857
-110.84026746,164.66934062,174.68807624,-93.38513474,116.44142606,0.51770218
1.99002430,17.18531359,2.72815901,-1.01452454,0.18932905

>  <Name>  (93) 
1uts_h

>  <RI>  (93) 
3.0543e+07

>  <Rbt.Current_Directory>  (93) 
/home/jta30/NA_complexes/1uts

>  <Rbt.Executable>  (93) 
rbdock ($Id: //depot/dev/client3/rdock/2013.1/src/exe/rbdock.cxx#4 $)

>  <Rbt.Library>  (93) 
libRbt.so (2013.1, Build901 2013/11/27)

>  <Rbt.Parameter_File>  (93) 
/software/dev_tools/swtree/cs400_centos7.2_pe2016-08/rdock/2013.1/centos7.2_conda/build/data/scripts/dock.prm

>  <Rbt.Receptor>  (93) 
1uts.prm

>  <SCORE>  (93) 
-7.74131

>  <SCORE.INTER>  (93) 
-6.53463

>  <SCORE.INTER.CONST>  (93) 
1

>  <SCORE.INTER.POLAR>  (93) 
-1.75926

>  <SCORE.INTER.REPUL>  (93) 
0.00652756

>  <SCORE.INTER.ROT>  (93) 
11

>  <SCORE.INTER.VDW>  (93) 
-16.9858

>  <SCORE.INTER.norm>  (93) 
-0.217821

>  <SCORE.INTRA>  (93) 
-2.56283

>  <SCORE.INTRA.DIHEDRAL>  (93) 
-3.40588

>  <SCORE.INTRA.DIHEDRAL.0>  (93) 
14.7121

>  <SCORE.INTRA.POLAR>  (93) 
0

>  <SCORE.INTRA.POLAR.0>  (93) 
0

>  <SCORE.INTRA.REPUL>  (93) 
0

>  <SCORE.INTRA.REPUL.0>  (93) 
0

>  <SCORE.INTRA.VDW>  (93) 
-0.85989

>  <SCORE.INTRA.VDW.0>  (93) 
-0.649219

>  <SCORE.INTRA.norm>  (93) 
-0.0854277

>  <SCORE.RESTR>  (93) 
0

>  <SCORE.RESTR.CAVITY>  (93) 
0

>  <SCORE.RESTR.norm>  (93) 
0

>  <SCORE.SYSTEM>  (93) 
1.35615

>  <SCORE.SYSTEM.CONST>  (93) 
0

>  <SCORE.SYSTEM.DIHEDRAL>  (93) 
0.313852

>  <SCORE.SYSTEM.POLAR>  (93) 
-0.0468481

>  <SCORE.SYSTEM.REPUL>  (93) 
0.455152

>  <SCORE.SYSTEM.VDW>  (93) 
-0.917252

>  <SCORE.SYSTEM.norm>  (93) 
0.045205

>  <SCORE.heavy>  (93) 
30

>  <SCORE.norm>  (93) 
-0.258044

>  <pdb_header>  (93) 
CRYST1    1.000    1.000    1.000  90.00  90.00  90.00 P 1           1

>  <Predicted_Rank>  (93) 
94.0

$$$$
1uts_h
     RDKit          3D

 35 38  0  0  0  0  0  0  0  0999 V2000
   -1.4800    3.3057   12.5591 N   0  0  0  0  0  0  0  0  0  0  0  0
   -2.0789    4.2374   14.7524 C   0  0  0  0  0  0  0  0  0  0  0  0
    2.7758    4.2498   15.7859 C   0  0  0  0  0  0  0  0  0  0  0  0
   -1.0704    3.3989   15.5430 C   0  0  0  0  0  0  0  0  0  0  0  0
    0.1590    3.3142   14.8073 O   0  0  0  0  0  0  0  0  0  0  0  0
   -2.5751    3.4376   13.5464 C   0  0  0  0  0  0  0  0  0  0  0  0
    3.2162    4.7642   17.1026 N   0  0  0  0  0  0  0  0  0  0  0  0
    4.6542    4.4470   17.3088 C   0  0  0  0  0  0  0  0  0  0  0  0
    4.9852    4.4918   18.8034 C   0  0  0  0  0  0  0  0  0  0  0  0
    4.0839    3.5737   19.5353 N   0  0  0  0  0  0  0  0  0  0  0  0
    3.9767    4.0170   20.9551 C   0  0  0  0  0  0  0  0  0  0  0  0
    4.6258    2.1873   19.4628 C   0  0  0  0  0  0  0  0  0  0  0  0
    3.0442    3.0633   21.7195 C   0  0  0  0  0  0  0  0  0  0  0  0
    3.6948    1.2320   20.2311 C   0  0  0  0  0  0  0  0  0  0  0  0
    3.5863    1.6768   21.6484 N   0  0  0  0  0  0  0  0  0  0  0  0
    1.5270    0.0635   16.1463 C   0  0  0  0  0  0  0  0  0  0  0  0
    6.0517   -3.4366   19.0218 N   0  0  0  0  0  0  0  0  0  0  0  0
    2.8002    0.4690   16.6131 C   0  0  0  0  0  0  0  0  0  0  0  0
    3.1988    1.8270   16.4928 C   0  0  0  0  0  0  0  0  0  0  0  0
    2.3217    2.7812   15.9079 C   0  0  0  0  0  0  0  0  0  0  0  0
    1.0448    2.3670   15.4230 C   0  0  0  0  0  0  0  0  0  0  0  0
    0.6500    1.0069   15.5489 C   0  0  0  0  0  0  0  0  0  0  0  0
    5.0743   -3.9625   19.8969 C   0  0  0  0  0  0  0  0  0  0  0  0
    3.8487   -3.2722   19.7588 C   0  0  0  0  0  0  0  0  0  0  0  0
    3.1851   -1.3401   18.2127 C   0  0  0  0  0  0  0  0  0  0  0  0
    3.6601   -0.4778   17.1874 C   0  0  0  0  0  0  0  0  0  0  0  0
    5.0061   -0.5820   16.7406 C   0  0  0  0  0  0  0  0  0  0  0  0
    5.8741   -1.5484   17.3171 C   0  0  0  0  0  0  0  0  0  0  0  0
    5.3893   -2.4237   18.3388 C   0  0  0  0  0  0  0  0  0  0  0  0
    4.0581   -2.3217   18.7825 C   0  0  0  0  0  0  0  0  0  0  0  0
    6.9827   -3.7262   18.9149 H   0  0  0  0  0  0  0  0  0  0  0  0
   -1.1542    4.2421   12.2802 H   0  0  0  0  0  0  0  0  0  0  0  0
   -0.6991    2.7830   12.9806 H   0  0  0  0  0  0  0  0  0  0  0  0
    2.6548    4.3258   17.8470 H   0  0  0  0  0  0  0  0  0  0  0  0
    2.9565    1.0402   22.1575 H   0  0  0  0  0  0  0  0  0  0  0  0
  1  6  1  0
  1 32  1  0
  1 33  1  0
  2  4  1  0
  2  6  1  0
  3  7  1  0
  3 20  1  0
  4  5  1  0
  5 21  1  0
  7  8  1  0
  7 34  1  0
  8  9  1  0
  9 10  1  0
 10 11  1  0
 10 12  1  0
 11 13  1  0
 12 14  1  0
 13 15  1  0
 14 15  1  0
 15 35  1  0
 16 18  2  0
 16 22  1  0
 17 23  1  0
 17 29  1  0
 17 31  1  0
 18 19  1  0
 18 26  1  0
 19 20  2  0
 20 21  1  0
 21 22  2  0
 23 24  2  0
 24 30  1  0
 25 26  2  0
 25 30  1  0
 26 27  1  0
 27 28  2  0
 28 29  1  0
 29 30  2  0
M  END
>  <CHROM.0>  (94) 
-39.33106304,-86.85932300,-54.96338078

>  <CHROM.1>  (94) 
-57.67959491,72.45274481,-70.08412739,86.96956689,-53.44213412,-171.02000759
-119.57583015,-159.21309144,55.67174389,-155.88574527,-50.09109988,2.78128896
1.49879026,17.49675162,2.74961557,-0.84541083,0.28811646

>  <Name>  (94) 
1uts_h

>  <RI>  (94) 
3.0543e+07

>  <Rbt.Current_Directory>  (94) 
/home/jta30/NA_complexes/1uts

>  <Rbt.Executable>  (94) 
rbdock ($Id: //depot/dev/client3/rdock/2013.1/src/exe/rbdock.cxx#4 $)

>  <Rbt.Library>  (94) 
libRbt.so (2013.1, Build901 2013/11/27)

>  <Rbt.Parameter_File>  (94) 
/software/dev_tools/swtree/cs400_centos7.2_pe2016-08/rdock/2013.1/centos7.2_conda/build/data/scripts/dock.prm

>  <Rbt.Receptor>  (94) 
1uts.prm

>  <SCORE>  (94) 
-5.64146

>  <SCORE.INTER>  (94) 
-4.58778

>  <SCORE.INTER.CONST>  (94) 
1

>  <SCORE.INTER.POLAR>  (94) 
-1.00458

>  <SCORE.INTER.REPUL>  (94) 
0.0585383

>  <SCORE.INTER.ROT>  (94) 
11

>  <SCORE.INTER.VDW>  (94) 
-17.8649

>  <SCORE.INTER.norm>  (94) 
-0.152926

>  <SCORE.INTRA>  (94) 
-6.62048

>  <SCORE.INTRA.DIHEDRAL>  (94) 
-4.77972

>  <SCORE.INTRA.DIHEDRAL.0>  (94) 
14.7121

>  <SCORE.INTRA.POLAR>  (94) 
-0.564885

>  <SCORE.INTRA.POLAR.0>  (94) 
0

>  <SCORE.INTRA.REPUL>  (94) 
0

>  <SCORE.INTRA.REPUL.0>  (94) 
0

>  <SCORE.INTRA.VDW>  (94) 
-2.31001

>  <SCORE.INTRA.VDW.0>  (94) 
-0.649219

>  <SCORE.INTRA.norm>  (94) 
-0.220683

>  <SCORE.RESTR>  (94) 
0

>  <SCORE.RESTR.CAVITY>  (94) 
0

>  <SCORE.RESTR.norm>  (94) 
0

>  <SCORE.SYSTEM>  (94) 
5.56681

>  <SCORE.SYSTEM.CONST>  (94) 
0

>  <SCORE.SYSTEM.DIHEDRAL>  (94) 
5.19259

>  <SCORE.SYSTEM.POLAR>  (94) 
-0.983849

>  <SCORE.SYSTEM.REPUL>  (94) 
0.853934

>  <SCORE.SYSTEM.VDW>  (94) 
2.04592

>  <SCORE.SYSTEM.norm>  (94) 
0.18556

>  <SCORE.heavy>  (94) 
30

>  <SCORE.norm>  (94) 
-0.188049

>  <pdb_header>  (94) 
CRYST1    1.000    1.000    1.000  90.00  90.00  90.00 P 1           1

>  <Predicted_Rank>  (94) 
95.0

$$$$
1uts_h
     RDKit          3D

 35 38  0  0  0  0  0  0  0  0999 V2000
    3.5825   -4.9059   16.8861 N   0  0  0  0  0  0  0  0  0  0  0  0
    2.4503   -3.9878   18.8641 C   0  0  0  0  0  0  0  0  0  0  0  0
    2.8325    0.7781   18.8606 C   0  0  0  0  0  0  0  0  0  0  0  0
    2.3798   -2.5871   18.2490 C   0  0  0  0  0  0  0  0  0  0  0  0
    1.4132   -1.8019   18.9624 O   0  0  0  0  0  0  0  0  0  0  0  0
    3.6963   -4.7105   18.3491 C   0  0  0  0  0  0  0  0  0  0  0  0
    3.9627   -0.0188   18.3318 N   0  0  0  0  0  0  0  0  0  0  0  0
    5.1943    0.2817   19.1090 C   0  0  0  0  0  0  0  0  0  0  0  0
    6.1009    1.2156   18.3019 C   0  0  0  0  0  0  0  0  0  0  0  0
    5.4322    2.5250   18.1312 N   0  0  0  0  0  0  0  0  0  0  0  0
    5.5599    2.9616   16.7110 C   0  0  0  0  0  0  0  0  0  0  0  0
    6.0616    3.5236   19.0409 C   0  0  0  0  0  0  0  0  0  0  0  0
    4.8697    4.3233   16.5306 C   0  0  0  0  0  0  0  0  0  0  0  0
    5.3737    4.8886   18.8585 C   0  0  0  0  0  0  0  0  0  0  0  0
    5.4996    5.3228   17.4393 N   0  0  0  0  0  0  0  0  0  0  0  0
   -0.8056    0.0394   16.5296 C   0  0  0  0  0  0  0  0  0  0  0  0
   -2.3621    5.1823   13.0438 N   0  0  0  0  0  0  0  0  0  0  0  0
   -0.1636    1.2992   16.4666 C   0  0  0  0  0  0  0  0  0  0  0  0
    1.0147    1.5321   17.2248 C   0  0  0  0  0  0  0  0  0  0  0  0
    1.5533    0.5027   18.0447 C   0  0  0  0  0  0  0  0  0  0  0  0
    0.8951   -0.7616   18.1195 C   0  0  0  0  0  0  0  0  0  0  0  0
   -0.2823   -0.9900   17.3558 C   0  0  0  0  0  0  0  0  0  0  0  0
   -2.3856    4.3905   11.8732 C   0  0  0  0  0  0  0  0  0  0  0  0
   -1.8546    3.1046   12.1223 C   0  0  0  0  0  0  0  0  0  0  0  0
   -0.9424    2.0633   14.2781 C   0  0  0  0  0  0  0  0  0  0  0  0
   -0.7013    2.3098   15.6571 C   0  0  0  0  0  0  0  0  0  0  0  0
   -1.0129    3.5801   16.2152 C   0  0  0  0  0  0  0  0  0  0  0  0
   -1.5665    4.6006   15.3956 C   0  0  0  0  0  0  0  0  0  0  0  0
   -1.8208    4.3450   14.0118 C   0  0  0  0  0  0  0  0  0  0  0  0
   -1.5127    3.0890   13.4578 C   0  0  0  0  0  0  0  0  0  0  0  0
   -2.6664    6.1086   13.1504 H   0  0  0  0  0  0  0  0  0  0  0  0
    2.7176   -5.4234   16.6748 H   0  0  0  0  0  0  0  0  0  0  0  0
    3.5555   -3.9886   16.4186 H   0  0  0  0  0  0  0  0  0  0  0  0
    4.1133    0.2162   17.3400 H   0  0  0  0  0  0  0  0  0  0  0  0
    5.0315    6.2324   17.3190 H   0  0  0  0  0  0  0  0  0  0  0  0
  1  6  1  0
  1 32  1  0
  1 33  1  0
  2  4  1  0
  2  6  1  0
  3  7  1  0
  3 20  1  0
  4  5  1  0
  5 21  1  0
  7  8  1  0
  7 34  1  0
  8  9  1  0
  9 10  1  0
 10 11  1  0
 10 12  1  0
 11 13  1  0
 12 14  1  0
 13 15  1  0
 14 15  1  0
 15 35  1  0
 16 18  2  0
 16 22  1  0
 17 23  1  0
 17 29  1  0
 17 31  1  0
 18 19  1  0
 18 26  1  0
 19 20  2  0
 20 21  1  0
 21 22  2  0
 23 24  2  0
 24 30  1  0
 25 26  2  0
 25 30  1  0
 26 27  1  0
 27 28  2  0
 28 29  1  0
 29 30  2  0
M  END
>  <CHROM.0>  (95) 
-36.37265732,-86.91836660,-61.27870335

>  <CHROM.1>  (95) 
-56.66950854,-166.21773588,-63.90601517,178.70542192,-111.70854051,-154.72772668
-88.01926975,-102.91223142,65.48640185,-134.25834296,-54.74113482,1.92873188
1.32977895,16.84054047,0.75358287,0.49619033,2.86426755

>  <Name>  (95) 
1uts_h

>  <RI>  (95) 
3.0543e+07

>  <Rbt.Current_Directory>  (95) 
/home/jta30/NA_complexes/1uts

>  <Rbt.Executable>  (95) 
rbdock ($Id: //depot/dev/client3/rdock/2013.1/src/exe/rbdock.cxx#4 $)

>  <Rbt.Library>  (95) 
libRbt.so (2013.1, Build901 2013/11/27)

>  <Rbt.Parameter_File>  (95) 
/software/dev_tools/swtree/cs400_centos7.2_pe2016-08/rdock/2013.1/centos7.2_conda/build/data/scripts/dock.prm

>  <Rbt.Receptor>  (95) 
1uts.prm

>  <SCORE>  (95) 
-4.35488

>  <SCORE.INTER>  (95) 
-8.15982

>  <SCORE.INTER.CONST>  (95) 
1

>  <SCORE.INTER.POLAR>  (95) 
-2.60345

>  <SCORE.INTER.REPUL>  (95) 
0.07035

>  <SCORE.INTER.ROT>  (95) 
11

>  <SCORE.INTER.VDW>  (95) 
-16.0598

>  <SCORE.INTER.norm>  (95) 
-0.271994

>  <SCORE.INTRA>  (95) 
-1.85073

>  <SCORE.INTRA.DIHEDRAL>  (95) 
-1.00147

>  <SCORE.INTRA.DIHEDRAL.0>  (95) 
14.7121

>  <SCORE.INTRA.POLAR>  (95) 
0

>  <SCORE.INTRA.POLAR.0>  (95) 
0

>  <SCORE.INTRA.REPUL>  (95) 
0

>  <SCORE.INTRA.REPUL.0>  (95) 
0

>  <SCORE.INTRA.VDW>  (95) 
-1.35

>  <SCORE.INTRA.VDW.0>  (95) 
-0.649219

>  <SCORE.INTRA.norm>  (95) 
-0.0616911

>  <SCORE.RESTR>  (95) 
0

>  <SCORE.RESTR.CAVITY>  (95) 
0

>  <SCORE.RESTR.norm>  (95) 
0

>  <SCORE.SYSTEM>  (95) 
5.65567

>  <SCORE.SYSTEM.CONST>  (95) 
0

>  <SCORE.SYSTEM.DIHEDRAL>  (95) 
5.59215

>  <SCORE.SYSTEM.POLAR>  (95) 
-1.0293

>  <SCORE.SYSTEM.REPUL>  (95) 
0.855044

>  <SCORE.SYSTEM.VDW>  (95) 
2.08398

>  <SCORE.SYSTEM.norm>  (95) 
0.188522

>  <SCORE.heavy>  (95) 
30

>  <SCORE.norm>  (95) 
-0.145163

>  <pdb_header>  (95) 
CRYST1    1.000    1.000    1.000  90.00  90.00  90.00 P 1           1

>  <Predicted_Rank>  (95) 
96.0

$$$$
1uts_h
     RDKit          3D

 35 38  0  0  0  0  0  0  0  0999 V2000
    2.9283   -1.1928   17.3392 N   0  0  0  0  0  0  0  0  0  0  0  0
    1.9245    0.9540   16.6903 C   0  0  0  0  0  0  0  0  0  0  0  0
   -0.9281    4.7499   17.0862 C   0  0  0  0  0  0  0  0  0  0  0  0
    1.2286    2.1344   17.3741 C   0  0  0  0  0  0  0  0  0  0  0  0
   -0.1894    1.9129   17.3800 O   0  0  0  0  0  0  0  0  0  0  0  0
    1.7653   -0.3014   17.5499 C   0  0  0  0  0  0  0  0  0  0  0  0
    0.4965    5.1464   17.1592 N   0  0  0  0  0  0  0  0  0  0  0  0
    0.8627    5.4413   18.5698 C   0  0  0  0  0  0  0  0  0  0  0  0
    2.3789    5.6248   18.6837 C   0  0  0  0  0  0  0  0  0  0  0  0
    3.0619    4.4297   18.1395 N   0  0  0  0  0  0  0  0  0  0  0  0
    4.0719    3.9483   19.1254 C   0  0  0  0  0  0  0  0  0  0  0  0
    3.7206    4.7815   16.8498 C   0  0  0  0  0  0  0  0  0  0  0  0
    4.7863    2.7092   18.5619 C   0  0  0  0  0  0  0  0  0  0  0  0
    4.4395    3.5424   16.2864 C   0  0  0  0  0  0  0  0  0  0  0  0
    5.4463    3.0607   17.2726 N   0  0  0  0  0  0  0  0  0  0  0  0
   -1.5569    1.8444   13.8647 C   0  0  0  0  0  0  0  0  0  0  0  0
   -4.5135    4.8346    8.9648 N   0  0  0  0  0  0  0  0  0  0  0  0
   -1.9422    3.1951   13.6900 C   0  0  0  0  0  0  0  0  0  0  0  0
   -1.7361    4.1313   14.7381 C   0  0  0  0  0  0  0  0  0  0  0  0
   -1.1410    3.7169   15.9612 C   0  0  0  0  0  0  0  0  0  0  0  0
   -0.7681    2.3510   16.1413 C   0  0  0  0  0  0  0  0  0  0  0  0
   -0.9740    1.4189   15.0875 C   0  0  0  0  0  0  0  0  0  0  0  0
   -5.8374    4.7752    9.4564 C   0  0  0  0  0  0  0  0  0  0  0  0
   -5.8582    4.3363   10.7997 C   0  0  0  0  0  0  0  0  0  0  0  0
   -3.9434    3.7045   12.3803 C   0  0  0  0  0  0  0  0  0  0  0  0
   -2.5297    3.5960   12.4819 C   0  0  0  0  0  0  0  0  0  0  0  0
   -1.7128    3.9013   11.3586 C   0  0  0  0  0  0  0  0  0  0  0  0
   -2.3091    4.3165   10.1373 C   0  0  0  0  0  0  0  0  0  0  0  0
   -3.7308    4.4381   10.0424 C   0  0  0  0  0  0  0  0  0  0  0  0
   -4.5406    4.1359   11.1524 C   0  0  0  0  0  0  0  0  0  0  0  0
   -4.2150    5.1027    8.0698 H   0  0  0  0  0  0  0  0  0  0  0  0
    2.8434   -2.0183   17.9490 H   0  0  0  0  0  0  0  0  0  0  0  0
    2.9547   -1.4955   16.3551 H   0  0  0  0  0  0  0  0  0  0  0  0
    0.6491    5.9846   16.5795 H   0  0  0  0  0  0  0  0  0  0  0  0
    5.9197    2.2270   16.8960 H   0  0  0  0  0  0  0  0  0  0  0  0
  1  6  1  0
  1 32  1  0
  1 33  1  0
  2  4  1  0
  2  6  1  0
  3  7  1  0
  3 20  1  0
  4  5  1  0
  5 21  1  0
  7  8  1  0
  7 34  1  0
  8  9  1  0
  9 10  1  0
 10 11  1  0
 10 12  1  0
 11 13  1  0
 12 14  1  0
 13 15  1  0
 14 15  1  0
 15 35  1  0
 16 18  2  0
 16 22  1  0
 17 23  1  0
 17 29  1  0
 17 31  1  0
 18 19  1  0
 18 26  1  0
 19 20  2  0
 20 21  1  0
 21 22  2  0
 23 24  2  0
 24 30  1  0
 25 26  2  0
 25 30  1  0
 26 27  1  0
 27 28  2  0
 28 29  1  0
 29 30  2  0
M  END
>  <CHROM.0>  (96) 
61.43393640,66.85895798,-55.04439329

>  <CHROM.1>  (96) 
177.45766853,-67.32547628,-150.48433873,-147.16327180,-103.91037288,-84.66943739
-85.31059857,170.69878020,-55.09938226,-129.91170467,98.06711770,-0.03533985
3.35037436,15.19017077,0.06818479,0.77839065,-3.06120772

>  <Name>  (96) 
1uts_h

>  <RI>  (96) 
3.0543e+07

>  <Rbt.Current_Directory>  (96) 
/home/jta30/NA_complexes/1uts

>  <Rbt.Executable>  (96) 
rbdock ($Id: //depot/dev/client3/rdock/2013.1/src/exe/rbdock.cxx#4 $)

>  <Rbt.Library>  (96) 
libRbt.so (2013.1, Build901 2013/11/27)

>  <Rbt.Parameter_File>  (96) 
/software/dev_tools/swtree/cs400_centos7.2_pe2016-08/rdock/2013.1/centos7.2_conda/build/data/scripts/dock.prm

>  <Rbt.Receptor>  (96) 
1uts.prm

>  <SCORE>  (96) 
-15.4415

>  <SCORE.INTER>  (96) 
-13.2628

>  <SCORE.INTER.CONST>  (96) 
1

>  <SCORE.INTER.POLAR>  (96) 
-1.5972

>  <SCORE.INTER.REPUL>  (96) 
0

>  <SCORE.INTER.ROT>  (96) 
11

>  <SCORE.INTER.VDW>  (96) 
-24.2323

>  <SCORE.INTER.norm>  (96) 
-0.442093

>  <SCORE.INTRA>  (96) 
-3.4897

>  <SCORE.INTRA.DIHEDRAL>  (96) 
0.739992

>  <SCORE.INTRA.DIHEDRAL.0>  (96) 
14.7121

>  <SCORE.INTRA.POLAR>  (96) 
0

>  <SCORE.INTRA.POLAR.0>  (96) 
0

>  <SCORE.INTRA.REPUL>  (96) 
0

>  <SCORE.INTRA.REPUL.0>  (96) 
0

>  <SCORE.INTRA.VDW>  (96) 
-3.8597

>  <SCORE.INTRA.VDW.0>  (96) 
-0.649219

>  <SCORE.INTRA.norm>  (96) 
-0.116323

>  <SCORE.RESTR>  (96) 
0

>  <SCORE.RESTR.CAVITY>  (96) 
0

>  <SCORE.RESTR.norm>  (96) 
0

>  <SCORE.SYSTEM>  (96) 
1.31098

>  <SCORE.SYSTEM.CONST>  (96) 
0

>  <SCORE.SYSTEM.DIHEDRAL>  (96) 
0.596523

>  <SCORE.SYSTEM.POLAR>  (96) 
-0.106246

>  <SCORE.SYSTEM.REPUL>  (96) 
0.455608

>  <SCORE.SYSTEM.VDW>  (96) 
-0.904087

>  <SCORE.SYSTEM.norm>  (96) 
0.0436992

>  <SCORE.heavy>  (96) 
30

>  <SCORE.norm>  (96) 
-0.514718

>  <pdb_header>  (96) 
CRYST1    1.000    1.000    1.000  90.00  90.00  90.00 P 1           1

>  <Predicted_Rank>  (96) 
97.0

$$$$
1uts_h
     RDKit          3D

 35 38  0  0  0  0  0  0  0  0999 V2000
    4.1792   -4.4169   17.4419 N   0  0  0  0  0  0  0  0  0  0  0  0
    4.1443   -2.2352   18.5716 C   0  0  0  0  0  0  0  0  0  0  0  0
    5.3341    2.5620   17.4793 C   0  0  0  0  0  0  0  0  0  0  0  0
    4.9647   -0.9553   18.7565 C   0  0  0  0  0  0  0  0  0  0  0  0
    5.2505   -0.3832   17.4716 O   0  0  0  0  0  0  0  0  0  0  0  0
    5.0310   -3.3293   17.9741 C   0  0  0  0  0  0  0  0  0  0  0  0
    4.9323    3.4946   18.5567 N   0  0  0  0  0  0  0  0  0  0  0  0
    4.6160    4.8258   17.9748 C   0  0  0  0  0  0  0  0  0  0  0  0
    3.4190    5.4398   18.7067 C   0  0  0  0  0  0  0  0  0  0  0  0
    2.1887    4.7004   18.3456 N   0  0  0  0  0  0  0  0  0  0  0  0
    1.0457    5.6550   18.2670 C   0  0  0  0  0  0  0  0  0  0  0  0
    1.9222    3.6533   19.3721 C   0  0  0  0  0  0  0  0  0  0  0  0
   -0.2350    4.8899   17.8959 C   0  0  0  0  0  0  0  0  0  0  0  0
    0.6379    2.8889   19.0034 C   0  0  0  0  0  0  0  0  0  0  0  0
   -0.5027    3.8433   18.9228 N   0  0  0  0  0  0  0  0  0  0  0  0
    1.8384    0.3453   16.0367 C   0  0  0  0  0  0  0  0  0  0  0  0
   -2.8560    4.3433   14.3134 N   0  0  0  0  0  0  0  0  0  0  0  0
    1.8317    1.7606   16.0404 C   0  0  0  0  0  0  0  0  0  0  0  0
    2.9675    2.4727   16.5096 C   0  0  0  0  0  0  0  0  0  0  0  0
    4.1127    1.7685   16.9728 C   0  0  0  0  0  0  0  0  0  0  0  0
    4.1112    0.3412   16.9834 C   0  0  0  0  0  0  0  0  0  0  0  0
    2.9725   -0.3663   16.5096 C   0  0  0  0  0  0  0  0  0  0  0  0
   -3.7532    3.2907   14.6047 C   0  0  0  0  0  0  0  0  0  0  0  0
   -3.0664    2.1721   15.1290 C   0  0  0  0  0  0  0  0  0  0  0  0
   -0.5773    1.8225   15.6252 C   0  0  0  0  0  0  0  0  0  0  0  0
    0.6984    2.4481   15.5837 C   0  0  0  0  0  0  0  0  0  0  0  0
    0.8218    3.7740   15.0848 C   0  0  0  0  0  0  0  0  0  0  0  0
   -0.3291    4.4731   14.6307 C   0  0  0  0  0  0  0  0  0  0  0  0
   -1.6132    3.8461   14.6867 C   0  0  0  0  0  0  0  0  0  0  0  0
   -1.7371    2.5342   15.1794 C   0  0  0  0  0  0  0  0  0  0  0  0
   -3.0644    5.2264   13.9408 H   0  0  0  0  0  0  0  0  0  0  0  0
    3.5142   -4.7190   18.1679 H   0  0  0  0  0  0  0  0  0  0  0  0
    3.6586   -4.0748   16.6217 H   0  0  0  0  0  0  0  0  0  0  0  0
    5.7027    3.5873   19.2347 H   0  0  0  0  0  0  0  0  0  0  0  0
   -1.3586    3.3299   18.6681 H   0  0  0  0  0  0  0  0  0  0  0  0
  1  6  1  0
  1 32  1  0
  1 33  1  0
  2  4  1  0
  2  6  1  0
  3  7  1  0
  3 20  1  0
  4  5  1  0
  5 21  1  0
  7  8  1  0
  7 34  1  0
  8  9  1  0
  9 10  1  0
 10 11  1  0
 10 12  1  0
 11 13  1  0
 12 14  1  0
 13 15  1  0
 14 15  1  0
 15 35  1  0
 16 18  2  0
 16 22  1  0
 17 23  1  0
 17 29  1  0
 17 31  1  0
 18 19  1  0
 18 26  1  0
 19 20  2  0
 20 21  1  0
 21 22  2  0
 23 24  2  0
 24 30  1  0
 25 26  2  0
 25 30  1  0
 26 27  1  0
 27 28  2  0
 28 29  1  0
 29 30  2  0
M  END
>  <CHROM.0>  (97) 
-34.55055088,-86.67506251,-57.76661081

>  <CHROM.1>  (97) 
-51.72898391,70.90596995,-164.00643251,-93.01405483,55.39167779,79.59128261
106.49237978,142.03006860,-71.09777184,-144.05380329,25.03575515,1.84316873
2.15652062,17.05119677,0.58096107,0.49124460,-2.89827200

>  <Name>  (97) 
1uts_h

>  <RI>  (97) 
3.0543e+07

>  <Rbt.Current_Directory>  (97) 
/home/jta30/NA_complexes/1uts

>  <Rbt.Executable>  (97) 
rbdock ($Id: //depot/dev/client3/rdock/2013.1/src/exe/rbdock.cxx#4 $)

>  <Rbt.Library>  (97) 
libRbt.so (2013.1, Build901 2013/11/27)

>  <Rbt.Parameter_File>  (97) 
/software/dev_tools/swtree/cs400_centos7.2_pe2016-08/rdock/2013.1/centos7.2_conda/build/data/scripts/dock.prm

>  <Rbt.Receptor>  (97) 
1uts.prm

>  <SCORE>  (97) 
-7.01691

>  <SCORE.INTER>  (97) 
-8.09194

>  <SCORE.INTER.CONST>  (97) 
1

>  <SCORE.INTER.POLAR>  (97) 
-1.59412

>  <SCORE.INTER.REPUL>  (97) 
0

>  <SCORE.INTER.ROT>  (97) 
11

>  <SCORE.INTER.VDW>  (97) 
-19.0719

>  <SCORE.INTER.norm>  (97) 
-0.269731

>  <SCORE.INTRA>  (97) 
-4.53564

>  <SCORE.INTRA.DIHEDRAL>  (97) 
-0.363807

>  <SCORE.INTRA.DIHEDRAL.0>  (97) 
14.7121

>  <SCORE.INTRA.POLAR>  (97) 
0

>  <SCORE.INTRA.POLAR.0>  (97) 
0

>  <SCORE.INTRA.REPUL>  (97) 
0

>  <SCORE.INTRA.REPUL.0>  (97) 
0

>  <SCORE.INTRA.VDW>  (97) 
-4.35374

>  <SCORE.INTRA.VDW.0>  (97) 
-0.649219

>  <SCORE.INTRA.norm>  (97) 
-0.151188

>  <SCORE.RESTR>  (97) 
0

>  <SCORE.RESTR.CAVITY>  (97) 
0

>  <SCORE.RESTR.norm>  (97) 
0

>  <SCORE.SYSTEM>  (97) 
5.61067

>  <SCORE.SYSTEM.CONST>  (97) 
0

>  <SCORE.SYSTEM.DIHEDRAL>  (97) 
5.88742

>  <SCORE.SYSTEM.POLAR>  (97) 
-1.05575

>  <SCORE.SYSTEM.REPUL>  (97) 
0.850465

>  <SCORE.SYSTEM.VDW>  (97) 
2.00417

>  <SCORE.SYSTEM.norm>  (97) 
0.187022

>  <SCORE.heavy>  (97) 
30

>  <SCORE.norm>  (97) 
-0.233897

>  <pdb_header>  (97) 
CRYST1    1.000    1.000    1.000  90.00  90.00  90.00 P 1           1

>  <Predicted_Rank>  (97) 
98.0

$$$$
1uts_h
     RDKit          3D

 35 38  0  0  0  0  0  0  0  0999 V2000
    2.7386    6.0278   20.3687 N   0  0  0  0  0  0  0  0  0  0  0  0
    1.9036    4.7367   18.4522 C   0  0  0  0  0  0  0  0  0  0  0  0
    1.1456    1.5473   16.4378 C   0  0  0  0  0  0  0  0  0  0  0  0
    0.5533    4.4456   19.1135 C   0  0  0  0  0  0  0  0  0  0  0  0
   -0.0082    3.2536   18.5445 O   0  0  0  0  0  0  0  0  0  0  0  0
    2.4217    6.0965   18.9243 C   0  0  0  0  0  0  0  0  0  0  0  0
    2.5318    1.9993   16.1802 N   0  0  0  0  0  0  0  0  0  0  0  0
    3.4927    1.0113   16.7384 C   0  0  0  0  0  0  0  0  0  0  0  0
    4.8848    1.6420   16.8377 C   0  0  0  0  0  0  0  0  0  0  0  0
    4.7957    2.9172   17.5839 N   0  0  0  0  0  0  0  0  0  0  0  0
    5.5440    3.9739   16.8442 C   0  0  0  0  0  0  0  0  0  0  0  0
    5.3678    2.7327   18.9476 C   0  0  0  0  0  0  0  0  0  0  0  0
    5.4570    5.2991   17.6183 C   0  0  0  0  0  0  0  0  0  0  0  0
    5.2846    4.0602   19.7225 C   0  0  0  0  0  0  0  0  0  0  0  0
    6.0302    5.1156   18.9819 N   0  0  0  0  0  0  0  0  0  0  0  0
   -1.6890    4.7634   15.5234 C   0  0  0  0  0  0  0  0  0  0  0  0
   -2.6463    5.2609    9.2150 N   0  0  0  0  0  0  0  0  0  0  0  0
   -1.1436    3.9776   14.4802 C   0  0  0  0  0  0  0  0  0  0  0  0
   -0.2252    2.9374   14.7834 C   0  0  0  0  0  0  0  0  0  0  0  0
    0.1457    2.6806   16.1319 C   0  0  0  0  0  0  0  0  0  0  0  0
   -0.3929    3.4848   17.1809 C   0  0  0  0  0  0  0  0  0  0  0  0
   -1.3142    4.5227   16.8716 C   0  0  0  0  0  0  0  0  0  0  0  0
   -3.0804    6.5809    9.4737 C   0  0  0  0  0  0  0  0  0  0  0  0
   -2.9530    6.8947   10.8459 C   0  0  0  0  0  0  0  0  0  0  0  0
   -2.0670    5.4990   12.8032 C   0  0  0  0  0  0  0  0  0  0  0  0
   -1.5129    4.2376   13.1529 C   0  0  0  0  0  0  0  0  0  0  0  0
   -1.3275    3.2431   12.1535 C   0  0  0  0  0  0  0  0  0  0  0  0
   -1.6937    3.5112   10.8068 C   0  0  0  0  0  0  0  0  0  0  0  0
   -2.2381    4.7861   10.4556 C   0  0  0  0  0  0  0  0  0  0  0  0
   -2.4227    5.7710   11.4431 C   0  0  0  0  0  0  0  0  0  0  0  0
   -2.6291    4.7904    8.3545 H   0  0  0  0  0  0  0  0  0  0  0  0
    3.2346    6.8846   20.6528 H   0  0  0  0  0  0  0  0  0  0  0  0
    1.8652    5.9432   20.9080 H   0  0  0  0  0  0  0  0  0  0  0  0
    2.6813    2.9168   16.6246 H   0  0  0  0  0  0  0  0  0  0  0  0
    5.9658    6.0042   19.4989 H   0  0  0  0  0  0  0  0  0  0  0  0
  1  6  1  0
  1 32  1  0
  1 33  1  0
  2  4  1  0
  2  6  1  0
  3  7  1  0
  3 20  1  0
  4  5  1  0
  5 21  1  0
  7  8  1  0
  7 34  1  0
  8  9  1  0
  9 10  1  0
 10 11  1  0
 10 12  1  0
 11 13  1  0
 12 14  1  0
 13 15  1  0
 14 15  1  0
 15 35  1  0
 16 18  2  0
 16 22  1  0
 17 23  1  0
 17 29  1  0
 17 31  1  0
 18 19  1  0
 18 26  1  0
 19 20  2  0
 20 21  1  0
 21 22  2  0
 23 24  2  0
 24 30  1  0
 25 26  2  0
 25 30  1  0
 26 27  1  0
 27 28  2  0
 28 29  1  0
 29 30  2  0
M  END
>  <CHROM.0>  (98) 
56.98691086,69.59073672,-166.79419774

>  <CHROM.1>  (98) 
170.43285948,172.83988107,66.63417503,168.38281324,79.66797945,-68.80412560
122.59563147,-163.94023829,52.96278738,-132.89708310,19.89235862,1.10638260
4.08365185,15.74900624,0.70884407,-0.50883346,1.21698679

>  <Name>  (98) 
1uts_h

>  <RI>  (98) 
3.0543e+07

>  <Rbt.Current_Directory>  (98) 
/home/jta30/NA_complexes/1uts

>  <Rbt.Executable>  (98) 
rbdock ($Id: //depot/dev/client3/rdock/2013.1/src/exe/rbdock.cxx#4 $)

>  <Rbt.Library>  (98) 
libRbt.so (2013.1, Build901 2013/11/27)

>  <Rbt.Parameter_File>  (98) 
/software/dev_tools/swtree/cs400_centos7.2_pe2016-08/rdock/2013.1/centos7.2_conda/build/data/scripts/dock.prm

>  <Rbt.Receptor>  (98) 
1uts.prm

>  <SCORE>  (98) 
-4.64277

>  <SCORE.INTER>  (98) 
-3.64016

>  <SCORE.INTER.CONST>  (98) 
1

>  <SCORE.INTER.POLAR>  (98) 
0

>  <SCORE.INTER.REPUL>  (98) 
0

>  <SCORE.INTER.ROT>  (98) 
11

>  <SCORE.INTER.VDW>  (98) 
-20.0402

>  <SCORE.INTER.norm>  (98) 
-0.121339

>  <SCORE.INTRA>  (98) 
-5.0708

>  <SCORE.INTRA.DIHEDRAL>  (98) 
-4.86152

>  <SCORE.INTRA.DIHEDRAL.0>  (98) 
14.7121

>  <SCORE.INTRA.POLAR>  (98) 
-0.105455

>  <SCORE.INTRA.POLAR.0>  (98) 
0

>  <SCORE.INTRA.REPUL>  (98) 
0

>  <SCORE.INTRA.REPUL.0>  (98) 
0

>  <SCORE.INTRA.VDW>  (98) 
-2.2815

>  <SCORE.INTRA.VDW.0>  (98) 
-0.649219

>  <SCORE.INTRA.norm>  (98) 
-0.169027

>  <SCORE.RESTR>  (98) 
0

>  <SCORE.RESTR.CAVITY>  (98) 
0

>  <SCORE.RESTR.norm>  (98) 
0

>  <SCORE.SYSTEM>  (98) 
4.06819

>  <SCORE.SYSTEM.CONST>  (98) 
0

>  <SCORE.SYSTEM.DIHEDRAL>  (98) 
1.52586

>  <SCORE.SYSTEM.POLAR>  (98) 
-0.127893

>  <SCORE.SYSTEM.REPUL>  (98) 
1.05158

>  <SCORE.SYSTEM.VDW>  (98) 
-1.51782

>  <SCORE.SYSTEM.norm>  (98) 
0.135606

>  <SCORE.heavy>  (98) 
30

>  <SCORE.norm>  (98) 
-0.154759

>  <pdb_header>  (98) 
CRYST1    1.000    1.000    1.000  90.00  90.00  90.00 P 1           1

>  <Predicted_Rank>  (98) 
99.0

$$$$
1uts_h
     RDKit          3D

 35 38  0  0  0  0  0  0  0  0999 V2000
    3.3178    4.5076   21.7555 N   0  0  0  0  0  0  0  0  0  0  0  0
    3.2087    4.3237   19.3078 C   0  0  0  0  0  0  0  0  0  0  0  0
    1.4025    1.3191   16.1182 C   0  0  0  0  0  0  0  0  0  0  0  0
    2.2827    4.4546   18.0950 C   0  0  0  0  0  0  0  0  0  0  0  0
    1.2690    3.4406   18.1584 O   0  0  0  0  0  0  0  0  0  0  0  0
    2.4041    4.5376   20.5912 C   0  0  0  0  0  0  0  0  0  0  0  0
    1.2723    0.6787   17.4467 N   0  0  0  0  0  0  0  0  0  0  0  0
   -0.0048   -0.0798   17.5142 C   0  0  0  0  0  0  0  0  0  0  0  0
    0.0320   -1.0519   18.6970 C   0  0  0  0  0  0  0  0  0  0  0  0
    1.1336   -2.0215   18.5036 N   0  0  0  0  0  0  0  0  0  0  0  0
    0.7342   -3.0210   17.4715 C   0  0  0  0  0  0  0  0  0  0  0  0
    1.4281   -2.6994   19.7976 C   0  0  0  0  0  0  0  0  0  0  0  0
    1.8746   -4.0322   17.2707 C   0  0  0  0  0  0  0  0  0  0  0  0
    2.5674   -3.7149   19.5969 C   0  0  0  0  0  0  0  0  0  0  0  0
    2.1687   -4.7114   18.5643 N   0  0  0  0  0  0  0  0  0  0  0  0
   -1.3400    4.7190   15.7520 C   0  0  0  0  0  0  0  0  0  0  0  0
   -4.8334    4.2201   10.3981 N   0  0  0  0  0  0  0  0  0  0  0  0
   -1.2937    3.7300   14.7407 C   0  0  0  0  0  0  0  0  0  0  0  0
   -0.4024    2.6311   14.8653 C   0  0  0  0  0  0  0  0  0  0  0  0
    0.4414    2.5196   16.0044 C   0  0  0  0  0  0  0  0  0  0  0  0
    0.4049    3.5267   17.0152 C   0  0  0  0  0  0  0  0  0  0  0  0
   -0.4916    4.6228   16.8865 C   0  0  0  0  0  0  0  0  0  0  0  0
   -6.0314    4.0513   11.1289 C   0  0  0  0  0  0  0  0  0  0  0  0
   -5.7608    3.8316   12.4987 C   0  0  0  0  0  0  0  0  0  0  0  0
   -3.5371    3.7362   13.7675 C   0  0  0  0  0  0  0  0  0  0  0  0
   -2.1277    3.8474   13.6198 C   0  0  0  0  0  0  0  0  0  0  0  0
   -1.5661    4.0847   12.3351 C   0  0  0  0  0  0  0  0  0  0  0  0
   -2.4131    4.2127   11.2012 C   0  0  0  0  0  0  0  0  0  0  0  0
   -3.8314    4.1142   11.3552 C   0  0  0  0  0  0  0  0  0  0  0  0
   -4.3888    3.8788   12.6253 C   0  0  0  0  0  0  0  0  0  0  0  0
   -4.7328    4.3833    9.4362 H   0  0  0  0  0  0  0  0  0  0  0  0
    3.7817    5.4219   21.8519 H   0  0  0  0  0  0  0  0  0  0  0  0
    2.7788    4.3055   22.6096 H   0  0  0  0  0  0  0  0  0  0  0  0
    1.2836    1.4034   18.1791 H   0  0  0  0  0  0  0  0  0  0  0  0
    2.9363   -5.3845   18.4267 H   0  0  0  0  0  0  0  0  0  0  0  0
  1  6  1  0
  1 32  1  0
  1 33  1  0
  2  4  1  0
  2  6  1  0
  3  7  1  0
  3 20  1  0
  4  5  1  0
  5 21  1  0
  7  8  1  0
  7 34  1  0
  8  9  1  0
  9 10  1  0
 10 11  1  0
 10 12  1  0
 11 13  1  0
 12 14  1  0
 13 15  1  0
 14 15  1  0
 15 35  1  0
 16 18  2  0
 16 22  1  0
 17 23  1  0
 17 29  1  0
 17 31  1  0
 18 19  1  0
 18 26  1  0
 19 20  2  0
 20 21  1  0
 21 22  2  0
 23 24  2  0
 24 30  1  0
 25 26  2  0
 25 30  1  0
 26 27  1  0
 27 28  2  0
 28 29  1  0
 29 30  2  0
M  END
>  <CHROM.0>  (99) 
60.80168814,68.97815950,-165.93240518

>  <CHROM.1>  (99) 
80.60189083,-61.75758971,-175.95458896,73.40155711,-130.42602193,-178.79251491
109.74151523,163.95320630,-61.49312162,-75.33224803,-66.63367168,-0.23959624
1.86700472,16.29747658,-0.51180610,-0.87757079,0.01175021

>  <Name>  (99) 
1uts_h

>  <RI>  (99) 
3.0543e+07

>  <Rbt.Current_Directory>  (99) 
/home/jta30/NA_complexes/1uts

>  <Rbt.Executable>  (99) 
rbdock ($Id: //depot/dev/client3/rdock/2013.1/src/exe/rbdock.cxx#4 $)

>  <Rbt.Library>  (99) 
libRbt.so (2013.1, Build901 2013/11/27)

>  <Rbt.Parameter_File>  (99) 
/software/dev_tools/swtree/cs400_centos7.2_pe2016-08/rdock/2013.1/centos7.2_conda/build/data/scripts/dock.prm

>  <Rbt.Receptor>  (99) 
1uts.prm

>  <SCORE>  (99) 
-7.04593

>  <SCORE.INTER>  (99) 
-3.97249

>  <SCORE.INTER.CONST>  (99) 
1

>  <SCORE.INTER.POLAR>  (99) 
0

>  <SCORE.INTER.REPUL>  (99) 
0.0605254

>  <SCORE.INTER.ROT>  (99) 
11

>  <SCORE.INTER.VDW>  (99) 
-20.6751

>  <SCORE.INTER.norm>  (99) 
-0.132416

>  <SCORE.INTRA>  (99) 
-7.10578

>  <SCORE.INTRA.DIHEDRAL>  (99) 
-6.87583

>  <SCORE.INTRA.DIHEDRAL.0>  (99) 
14.7121

>  <SCORE.INTRA.POLAR>  (99) 
-0.682127

>  <SCORE.INTRA.POLAR.0>  (99) 
0

>  <SCORE.INTRA.REPUL>  (99) 
0.00236374

>  <SCORE.INTRA.REPUL.0>  (99) 
0

>  <SCORE.INTRA.VDW>  (99) 
-1.36045

>  <SCORE.INTRA.VDW.0>  (99) 
-0.649219

>  <SCORE.INTRA.norm>  (99) 
-0.236859

>  <SCORE.RESTR>  (99) 
0

>  <SCORE.RESTR.CAVITY>  (99) 
0

>  <SCORE.RESTR.norm>  (99) 
0

>  <SCORE.SYSTEM>  (99) 
4.03234

>  <SCORE.SYSTEM.CONST>  (99) 
0

>  <SCORE.SYSTEM.DIHEDRAL>  (99) 
1.53532

>  <SCORE.SYSTEM.POLAR>  (99) 
-0.127092

>  <SCORE.SYSTEM.REPUL>  (99) 
1.04411

>  <SCORE.SYSTEM.VDW>  (99) 
-1.52378

>  <SCORE.SYSTEM.norm>  (99) 
0.134411

>  <SCORE.heavy>  (99) 
30

>  <SCORE.norm>  (99) 
-0.234864

>  <pdb_header>  (99) 
CRYST1    1.000    1.000    1.000  90.00  90.00  90.00 P 1           1

>  <Predicted_Rank>  (99) 
100.0

$$$$
1uts_h
     RDKit          3D

 35 38  0  0  0  0  0  0  0  0999 V2000
    0.0536    3.7769   19.3085 N   0  0  0  0  0  0  0  0  0  0  0  0
    0.8840    4.6613   17.1718 C   0  0  0  0  0  0  0  0  0  0  0  0
   -0.3057    0.9111   15.2037 C   0  0  0  0  0  0  0  0  0  0  0  0
    1.8722    4.4149   16.0282 C   0  0  0  0  0  0  0  0  0  0  0  0
    1.4334    3.2889   15.2541 O   0  0  0  0  0  0  0  0  0  0  0  0
    1.0686    3.5893   18.2474 C   0  0  0  0  0  0  0  0  0  0  0  0
   -0.8657    2.2814   15.2317 N   0  0  0  0  0  0  0  0  0  0  0  0
   -1.6483    2.5281   13.9917 C   0  0  0  0  0  0  0  0  0  0  0  0
   -1.9180    4.0280   13.8394 C   0  0  0  0  0  0  0  0  0  0  0  0
   -2.2714    4.3246   12.4330 N   0  0  0  0  0  0  0  0  0  0  0  0
   -2.0317    5.7708   12.1596 C   0  0  0  0  0  0  0  0  0  0  0  0
   -3.7029    3.9816   12.2004 C   0  0  0  0  0  0  0  0  0  0  0  0
   -2.4014    6.0835   10.7005 C   0  0  0  0  0  0  0  0  0  0  0  0
   -4.0753    4.2978   10.7406 C   0  0  0  0  0  0  0  0  0  0  0  0
   -3.8333    5.7419   10.4676 N   0  0  0  0  0  0  0  0  0  0  0  0
    3.6933    0.8215   16.9966 C   0  0  0  0  0  0  0  0  0  0  0  0
    4.5967   -5.1600   19.3404 N   0  0  0  0  0  0  0  0  0  0  0  0
    2.8818   -0.3381   17.0089 C   0  0  0  0  0  0  0  0  0  0  0  0
    1.5868   -0.3021   16.4266 C   0  0  0  0  0  0  0  0  0  0  0  0
    1.1040    0.8942   15.8285 C   0  0  0  0  0  0  0  0  0  0  0  0
    1.9175    2.0670   15.8317 C   0  0  0  0  0  0  0  0  0  0  0  0
    3.2142    2.0241   16.4133 C   0  0  0  0  0  0  0  0  0  0  0  0
    3.3303   -5.7846   19.4021 C   0  0  0  0  0  0  0  0  0  0  0  0
    2.3211   -4.9309   18.9019 C   0  0  0  0  0  0  0  0  0  0  0  0
    2.4657   -2.5657   17.9276 C   0  0  0  0  0  0  0  0  0  0  0  0
    3.3641   -1.5135   17.6017 C   0  0  0  0  0  0  0  0  0  0  0  0
    4.7528   -1.6581   17.8714 C   0  0  0  0  0  0  0  0  0  0  0  0
    5.2416   -2.8538   18.4638 C   0  0  0  0  0  0  0  0  0  0  0  0
    4.3372   -3.9161   18.7778 C   0  0  0  0  0  0  0  0  0  0  0  0
    2.9628   -3.7746   18.5122 C   0  0  0  0  0  0  0  0  0  0  0  0
    5.4624   -5.5247   19.6225 H   0  0  0  0  0  0  0  0  0  0  0  0
   -0.8849    3.6054   18.9206 H   0  0  0  0  0  0  0  0  0  0  0  0
    0.2330    3.1141   20.0761 H   0  0  0  0  0  0  0  0  0  0  0  0
   -0.0970    2.9644   15.2976 H   0  0  0  0  0  0  0  0  0  0  0  0
   -4.0759    5.9483    9.4880 H   0  0  0  0  0  0  0  0  0  0  0  0
  1  6  1  0
  1 32  1  0
  1 33  1  0
  2  4  1  0
  2  6  1  0
  3  7  1  0
  3 20  1  0
  4  5  1  0
  5 21  1  0
  7  8  1  0
  7 34  1  0
  8  9  1  0
  9 10  1  0
 10 11  1  0
 10 12  1  0
 11 13  1  0
 12 14  1  0
 13 15  1  0
 14 15  1  0
 15 35  1  0
 16 18  2  0
 16 22  1  0
 17 23  1  0
 17 29  1  0
 17 31  1  0
 18 19  1  0
 18 26  1  0
 19 20  2  0
 20 21  1  0
 21 22  2  0
 23 24  2  0
 24 30  1  0
 25 26  2  0
 25 30  1  0
 26 27  1  0
 27 28  2  0
 28 29  1  0
 29 30  2  0
M  END
>  <CHROM.0>  (100) 
-179.23435830,66.91504228,-53.50955645

>  <CHROM.1>  (100) 
65.47702409,74.03176404,-176.31088941,142.85629444,153.06220848,-86.02861747
142.80672158,-165.33335232,160.93635111,-158.78805791,164.00665839,0.84526446
1.29912568,15.83394270,-2.46714202,0.84612693,-3.04355251

>  <Name>  (100) 
1uts_h

>  <RI>  (100) 
3.0543e+07

>  <Rbt.Current_Directory>  (100) 
/home/jta30/NA_complexes/1uts

>  <Rbt.Executable>  (100) 
rbdock ($Id: //depot/dev/client3/rdock/2013.1/src/exe/rbdock.cxx#4 $)

>  <Rbt.Library>  (100) 
libRbt.so (2013.1, Build901 2013/11/27)

>  <Rbt.Parameter_File>  (100) 
/software/dev_tools/swtree/cs400_centos7.2_pe2016-08/rdock/2013.1/centos7.2_conda/build/data/scripts/dock.prm

>  <Rbt.Receptor>  (100) 
1uts.prm

>  <SCORE>  (100) 
-10.5434

>  <SCORE.INTER>  (100) 
-10.4938

>  <SCORE.INTER.CONST>  (100) 
1

>  <SCORE.INTER.POLAR>  (100) 
-0.824621

>  <SCORE.INTER.REPUL>  (100) 
0.0230516

>  <SCORE.INTER.ROT>  (100) 
11

>  <SCORE.INTER.VDW>  (100) 
-24.2053

>  <SCORE.INTER.norm>  (100) 
-0.349793

>  <SCORE.INTRA>  (100) 
-1.13442

>  <SCORE.INTRA.DIHEDRAL>  (100) 
-1.02162

>  <SCORE.INTRA.DIHEDRAL.0>  (100) 
14.7121

>  <SCORE.INTRA.POLAR>  (100) 
-0.755775

>  <SCORE.INTRA.POLAR.0>  (100) 
0

>  <SCORE.INTRA.REPUL>  (100) 
0

>  <SCORE.INTRA.REPUL.0>  (100) 
0

>  <SCORE.INTRA.VDW>  (100) 
1.94603

>  <SCORE.INTRA.VDW.0>  (100) 
-0.649219

>  <SCORE.INTRA.norm>  (100) 
-0.037814

>  <SCORE.RESTR>  (100) 
0

>  <SCORE.RESTR.CAVITY>  (100) 
0

>  <SCORE.RESTR.norm>  (100) 
0

>  <SCORE.SYSTEM>  (100) 
1.08482

>  <SCORE.SYSTEM.CONST>  (100) 
0

>  <SCORE.SYSTEM.DIHEDRAL>  (100) 
0.675842

>  <SCORE.SYSTEM.POLAR>  (100) 
-0.211593

>  <SCORE.SYSTEM.REPUL>  (100) 
0.453256

>  <SCORE.SYSTEM.VDW>  (100) 
-0.799966

>  <SCORE.SYSTEM.norm>  (100) 
0.0361607

>  <SCORE.heavy>  (100) 
30

>  <SCORE.norm>  (100) 
-0.351446

>  <pdb_header>  (100) 
CRYST1    1.000    1.000    1.000  90.00  90.00  90.00 P 1           1

>  <Predicted_Rank>  (100) 
101.0

$$$$
