# created with PyMOL 2.5.8
@<TRIPOS>MOLECULE
7lng_h
844 912 26              
SMALL
USER_CHARGES
@<TRIPOS>ATOM
1	   P	17.893	11.714	25.484	P.3	1	A5	0.000	
2	 C5'	20.185	10.407	25.638	C.3	1	A5	0.000	
3	 O5'	18.753	10.418	25.864	O.3	1	A5	0.000	
4	 C4'	20.732	9.047	25.956	C.3	1	A5	0.000	
5	 O4'	20.380	8.720	27.317	O.3	1	A5	0.000	
6	 C3'	20.129	7.901	25.169	C.3	1	A5	0.000	
7	 O3'	20.647	7.789	23.847	O.3	1	A5	0.000	
8	 C2'	20.451	6.724	26.067	C.3	1	A5	0.000	
9	 O2'	21.811	6.318	25.925	O.3	1	A5	0.000	
10	 C1'	20.149	7.326	27.434	C.3	1	A5	0.000	
11	  N1	16.847	4.117	29.697	N.2	1	A5	0.000	
12	  C2	18.137	3.998	29.363	C.2	1	A5	0.000	
13	  N3	18.933	4.873	28.763	N.2	1	A5	0.000	
14	  C4	18.273	6.015	28.505	C.2	1	A5	0.000	
15	  C5	16.934	6.269	28.737	C.2	1	A5	0.000	
16	  C6	16.197	5.256	29.378	C.2	1	A5	0.000	
17	  N6	14.907	5.366	29.706	N.pl3	1	A5	0.000	
18	  N7	16.590	7.543	28.298	N.2	1	A5	0.000	
19	  C8	17.704	8.007	27.780	C.2	1	A5	0.000	
20	  N9	18.770	7.144	27.901	N.pl3	1	A5	0.000	
21	 OP1	18.458	12.314	24.260	O.co2	1	A5	0.000	
22	 OP2	16.447	11.370	25.549	O.co2	1	A5	0.000	
23	 H01	20.389	10.645	24.594	 H	1	A5	0.000	
24	 H02	20.660	11.149	26.279	 H	1	A5	0.000	
25	 H03	21.796	9.127	25.732	 H	1	A5	0.000	
26	 H04	19.063	8.010	24.968	 H	1	A5	0.000	
27	 H05	19.893	5.812	25.856	 H	1	A5	0.000	
28	 H06	22.103	6.485	25.026	 H	1	A5	0.000	
29	 H07	20.784	6.817	28.159	 H	1	A5	0.000	
30	 H08	18.600	3.046	29.621	 H	1	A5	0.000	
31	 H09	14.400	6.212	29.486	 H	1	A5	0.000	
32	 H10	14.438	4.604	30.174	 H	1	A5	0.000	
33	 H11	17.778	8.983	27.300	 H	1	A5	0.000	
34	   P	19.735	7.069	22.731	P.3	2	C6	0.000	
35	 C5'	20.883	4.711	23.121	C.3	2	C6	0.000	
36	 O5'	19.713	5.532	23.168	O.3	2	C6	0.000	
37	 C4'	20.601	3.444	23.869	C.3	2	C6	0.000	
38	 O4'	19.973	3.790	25.123	O.3	2	C6	0.000	
39	 C3'	19.604	2.478	23.243	C.3	2	C6	0.000	
40	 O3'	20.225	1.639	22.280	O.3	2	C6	0.000	
41	 C2'	19.174	1.676	24.461	C.3	2	C6	0.000	
42	 O2'	20.164	0.816	24.999	O.3	2	C6	0.000	
43	 C1'	19.057	2.783	25.502	C.3	2	C6	0.000	
44	  N1	17.720	3.396	25.655	N.pl3	2	C6	0.000	
45	  C2	16.749	2.674	26.350	C.2	2	C6	0.000	
46	  O2	17.029	1.529	26.753	O.2	2	C6	0.000	
47	  N3	15.548	3.249	26.600	N.2	2	C6	0.000	
48	  C4	15.282	4.472	26.131	C.2	2	C6	0.000	
49	  N4	14.066	4.979	26.356	N.pl3	2	C6	0.000	
50	  C5	16.255	5.233	25.422	C.2	2	C6	0.000	
51	  C6	17.447	4.656	25.197	C.2	2	C6	0.000	
52	 OP1	20.429	7.220	21.463	O.co2	2	C6	0.000	
53	 OP2	18.354	7.570	22.948	O.co2	2	C6	0.000	
54	 H01	21.720	5.234	23.584	 H	2	C6	0.000	
55	 H02	21.575	2.957	23.915	 H	2	C6	0.000	
56	 H03	18.790	2.965	22.706	 H	2	C6	0.000	
57	 H04	18.311	1.059	24.212	 H	2	C6	0.000	
58	 H05	20.420	0.169	24.338	 H	2	C6	0.000	
59	 H06	19.262	2.325	26.470	 H	2	C6	0.000	
60	 H07	13.834	5.902	26.019	 H	2	C6	0.000	
61	 H08	13.380	4.439	26.863	 H	2	C6	0.000	
62	 H09	16.041	6.244	25.076	 H	2	C6	0.000	
63	 H10	18.209	5.201	24.640	 H	2	C6	0.000	
64	 H12	21.141	4.486	22.086	 H	2	C6	0.000	
65	   P	19.409	1.104	20.998	P.3	3	U7	0.000	
66	 C5'	19.112	-1.278	22.038	C.3	3	U7	0.000	
67	 O5'	18.508	-0.067	21.578	O.3	3	U7	0.000	
68	 C4'	18.055	-2.126	22.679	C.3	3	U7	0.000	
69	 O4'	17.515	-1.436	23.838	O.3	3	U7	0.000	
70	 C3'	16.826	-2.372	21.824	C.3	3	U7	0.000	
71	 O3'	17.065	-3.371	20.841	O.3	3	U7	0.000	
72	 C2'	15.828	-2.780	22.893	C.3	3	U7	0.000	
73	 O2'	16.098	-4.096	23.323	O.3	3	U7	0.000	
74	 C1'	16.146	-1.763	23.987	C.3	3	U7	0.000	
75	  N1	15.350	-0.523	23.929	N.pl3	3	U7	0.000	
76	  C2	14.097	-0.546	24.525	C.2	3	U7	0.000	
77	  O2	13.642	-1.531	25.089	O.2	3	U7	0.000	
78	  N3	13.404	0.637	24.448	N.pl3	3	U7	0.000	
79	  C4	13.813	1.814	23.849	C.2	3	U7	0.000	
80	  O4	13.060	2.794	23.862	O.2	3	U7	0.000	
81	  C5	15.107	1.749	23.228	C.2	3	U7	0.000	
82	  C6	15.817	0.613	23.295	C.2	3	U7	0.000	
83	 OP1	20.386	0.434	20.106	O.co2	3	U7	0.000	
84	 OP2	18.553	2.218	20.488	O.co2	3	U7	0.000	
85	 H01	19.890	-1.048	22.766	 H	3	U7	0.000	
86	 H02	18.565	-3.067	22.886	 H	3	U7	0.000	
87	 H03	16.491	-1.527	21.222	 H	3	U7	0.000	
88	 H04	14.784	-2.782	22.580	 H	3	U7	0.000	
89	 H05	16.229	-4.662	22.559	 H	3	U7	0.000	
90	 H06	15.901	-2.216	24.948	 H	3	U7	0.000	
91	 H07	12.490	0.649	24.878	 H	3	U7	0.000	
92	 H08	15.509	2.617	22.706	 H	3	U7	0.000	
93	 H09	16.803	0.584	22.830	 H	3	U7	0.000	
94	 H11	19.560	-1.812	21.200	 H	3	U7	0.000	
95	   P	16.209	-3.409	19.449	P.3	4	U8	0.000	
96	 C5'	14.445	-5.004	20.561	C.3	4	U8	0.000	
97	 O5'	14.737	-3.733	19.963	O.3	4	U8	0.000	
98	 C4'	12.999	-5.092	20.997	C.3	4	U8	0.000	
99	 O4'	12.724	-4.220	22.130	O.3	4	U8	0.000	
100	 C3'	11.968	-4.685	19.964	C.3	4	U8	0.000	
101	 O3'	11.727	-5.745	19.056	O.3	4	U8	0.000	
102	 C2'	10.748	-4.426	20.831	C.3	4	U8	0.000	
103	 O2'	10.040	-5.610	21.150	O.3	4	U8	0.000	
104	 C1'	11.389	-3.735	22.036	C.3	4	U8	0.000	
105	  N1	11.426	-2.272	21.882	N.pl3	4	U8	0.000	
106	  C2	10.286	-1.555	22.219	C.2	4	U8	0.000	
107	  O2	9.272	-2.081	22.657	O.2	4	U8	0.000	
108	  N3	10.389	-0.198	22.039	N.pl3	4	U8	0.000	
109	  C4	11.473	0.501	21.544	C.2	4	U8	0.000	
110	  O4	11.407	1.725	21.434	O.2	4	U8	0.000	
111	  C5	12.596	-0.313	21.186	C.2	4	U8	0.000	
112	  C6	12.534	-1.638	21.360	C.2	4	U8	0.000	
113	 OP1	16.683	-4.591	18.681	O.co2	4	U8	0.000	
114	 OP2	16.253	-2.053	18.810	O.co2	4	U8	0.000	
115	 H01	15.087	-5.143	21.431	 H	4	U8	0.000	
116	 H02	12.900	-6.155	21.217	 H	4	U8	0.000	
117	 H03	12.262	-3.834	19.349	 H	4	U8	0.000	
118	 H04	9.971	-3.828	20.355	 H	4	U8	0.000	
119	 H05	9.902	-5.655	22.099	 H	4	U8	0.000	
120	 H06	10.802	-3.953	22.928	 H	4	U8	0.000	
121	 H07	9.582	0.351	22.297	 H	4	U8	0.000	
122	 H08	13.496	0.144	20.774	 H	4	U8	0.000	
123	 H09	13.396	-2.242	21.077	 H	4	U8	0.000	
124	 H10	14.626	-5.781	19.818	 H	4	U8	0.000	
125	   P	11.208	-5.434	17.604	P.3	5	A9	0.000	
126	 C5'	8.650	-5.740	18.141	C.3	5	A9	0.000	
127	 O5'	9.746	-4.868	17.849	O.3	5	A9	0.000	
128	 C4'	7.376	-4.936	18.163	C.3	5	A9	0.000	
129	 O4'	7.376	-4.011	19.292	O.3	5	A9	0.000	
130	 C3'	7.164	-3.996	16.987	C.3	5	A9	0.000	
131	 O3'	6.819	-4.641	15.773	O.3	5	A9	0.000	
132	 C2'	6.071	-3.104	17.549	C.3	5	A9	0.000	
133	 O2'	4.812	-3.734	17.653	O.3	5	A9	0.000	
134	 C1'	6.613	-2.860	18.952	C.3	5	A9	0.000	
135	  N1	6.749	2.234	19.386	N.2	5	A9	0.000	
136	  C2	5.744	1.349	19.421	C.2	5	A9	0.000	
137	  N3	5.785	0.025	19.292	N.2	5	A9	0.000	
138	  C4	7.051	-0.395	19.130	C.2	5	A9	0.000	
139	  C5	8.187	0.388	19.090	C.2	5	A9	0.000	
140	  C6	8.011	1.774	19.232	C.2	5	A9	0.000	
141	  N6	9.015	2.652	19.208	N.pl3	5	A9	0.000	
142	  N7	9.315	-0.395	18.898	N.2	5	A9	0.000	
143	  C8	8.844	-1.615	18.838	C.2	5	A9	0.000	
144	  N9	7.484	-1.690	18.988	N.pl3	5	A9	0.000	
145	 OP1	11.141	-6.725	16.869	O.co2	5	A9	0.000	
146	 OP2	11.983	-4.299	17.035	O.co2	5	A9	0.000	
147	 H01	8.804	-6.209	19.113	 H	5	A9	0.000	
148	 H02	6.612	-5.713	18.179	 H	5	A9	0.000	
149	 H03	8.063	-3.466	16.674	 H	5	A9	0.000	
150	 H04	5.887	-2.230	16.924	 H	5	A9	0.000	
151	 H05	4.534	-3.744	18.572	 H	5	A9	0.000	
152	 H06	5.791	-2.683	19.646	 H	5	A9	0.000	
153	 H07	4.752	1.773	19.577	 H	5	A9	0.000	
154	 H08	9.965	2.330	19.088	 H	5	A9	0.000	
155	 H09	8.825	3.639	19.309	 H	5	A9	0.000	
156	 H10	8.583	-6.515	17.378	 H	5	A9	0.000	
157	 H11	9.475	-2.490	18.683	 H	5	A9	0.000	
158	   P	7.200	-3.953	14.355	P.3	6	A10	0.000	
159	 C5'	4.705	-3.014	14.126	C.3	6	A10	0.000	
160	 O5'	6.122	-2.788	14.170	O.3	6	A10	0.000	
161	 C4'	3.964	-1.725	14.425	C.3	6	A10	0.000	
162	 O4'	4.420	-1.163	15.692	O.3	6	A10	0.000	
163	 C3'	4.173	-0.559	13.464	C.3	6	A10	0.000	
164	 O3'	3.519	-0.609	12.205	O.3	6	A10	0.000	
165	 C2'	3.676	0.602	14.310	C.3	6	A10	0.000	
166	 O2'	2.267	0.739	14.395	O.3	6	A10	0.000	
167	 C1'	4.322	0.254	15.649	C.3	6	A10	0.000	
168	  N1	7.084	4.423	16.771	N.2	6	A10	0.000	
169	  C2	5.766	4.175	16.810	C.2	6	A10	0.000	
170	  N3	5.112	3.059	16.496	N.2	6	A10	0.000	
171	  C4	5.971	2.100	16.108	C.2	6	A10	0.000	
172	  C5	7.347	2.207	16.010	C.2	6	A10	0.000	
173	  C6	7.918	3.437	16.369	C.2	6	A10	0.000	
174	  N6	9.228	3.684	16.325	N.pl3	6	A10	0.000	
175	  N7	7.902	1.014	15.571	N.2	6	A10	0.000	
176	  C8	6.867	0.225	15.413	C.2	6	A10	0.000	
177	  N9	5.668	0.815	15.734	N.pl3	6	A10	0.000	
178	 OP1	7.029	-4.977	13.289	O.co2	6	A10	0.000	
179	 OP2	8.516	-3.280	14.501	O.co2	6	A10	0.000	
180	 H01	4.436	-3.766	14.867	 H	6	A10	0.000	
181	 H02	2.927	-2.056	14.379	 H	6	A10	0.000	
182	 H03	5.209	-0.519	13.128	 H	6	A10	0.000	
183	 H04	3.941	1.575	13.896	 H	6	A10	0.000	
184	 H05	1.984	1.484	13.859	 H	6	A10	0.000	
185	 H06	3.730	0.656	16.471	 H	6	A10	0.000	
186	 H07	5.143	5.004	17.146	 H	6	A10	0.000	
187	 H08	9.868	2.963	16.024	 H	6	A10	0.000	
188	 H09	9.580	4.592	16.592	 H	6	A10	0.000	
189	 H10	6.950	-0.803	15.060	 H	6	A10	0.000	
190	 H12	4.429	-3.362	13.130	 H	6	A10	0.000	
191	   P	4.275	-0.046	10.905	P.3	7	G11	0.000	
192	 C5'	2.740	2.066	11.245	C.3	7	G11	0.000	
193	 O5'	4.056	1.544	10.958	O.3	7	G11	0.000	
194	 C4'	2.875	3.522	11.616	C.3	7	G11	0.000	
195	 O4'	3.687	3.646	12.808	O.3	7	G11	0.000	
196	 C3'	3.604	4.416	10.611	C.3	7	G11	0.000	
197	 O3'	2.764	4.759	9.517	O.3	7	G11	0.000	
198	 C2'	4.013	5.601	11.495	C.3	7	G11	0.000	
199	 O2'	3.048	6.621	11.687	O.3	7	G11	0.000	
200	 C1'	4.303	4.915	12.830	C.3	7	G11	0.000	
201	  N1	8.559	7.373	13.985	N.pl3	7	G11	0.000	
202	  C2	7.276	7.853	13.835	C.2	7	G11	0.000	
203	  N2	7.088	9.168	14.017	N.pl3	7	G11	0.000	
204	  N3	6.233	7.084	13.533	N.2	7	G11	0.000	
205	  C4	6.590	5.787	13.378	C.2	7	G11	0.000	
206	  C5	7.841	5.218	13.489	C.2	7	G11	0.000	
207	  C6	8.950	6.040	13.817	C.2	7	G11	0.000	
208	  O6	10.136	5.705	13.958	O.2	7	G11	0.000	
209	  N7	7.779	3.849	13.244	N.2	7	G11	0.000	
210	  C8	6.508	3.628	12.994	C.2	7	G11	0.000	
211	  N9	5.733	4.761	13.067	N.pl3	7	G11	0.000	
212	 OP1	3.620	-0.637	9.674	O.co2	7	G11	0.000	
213	 OP2	5.771	-0.289	11.031	O.co2	7	G11	0.000	
214	 H01	2.297	1.514	12.074	 H	7	G11	0.000	
215	 H02	1.838	3.845	11.703	 H	7	G11	0.000	
216	 H03	4.460	3.957	10.116	 H	7	G11	0.000	
217	 H04	4.834	6.144	11.027	 H	7	G11	0.000	
218	 H05	2.843	7.031	10.844	 H	7	G11	0.000	
219	 H06	3.909	5.533	13.637	 H	7	G11	0.000	
220	 H07	9.276	8.038	14.237	 H	7	G11	0.000	
221	 H08	6.164	9.564	13.921	 H	7	G11	0.000	
222	 H09	7.870	9.763	14.250	 H	7	G11	0.000	
223	 H10	6.108	2.643	12.753	 H	7	G11	0.000	
224	 H11	2.097	1.961	10.371	 H	7	G11	0.000	
225	   P	3.424	5.143	8.095	P.3	8	U12	0.000	
226	 C5'	3.632	7.734	8.587	C.3	8	U12	0.000	
227	 O5'	4.276	6.450	8.449	O.3	8	U12	0.000	
228	 C4'	4.561	8.796	9.155	C.3	8	U12	0.000	
229	 O4'	5.381	8.285	10.240	O.3	8	U12	0.000	
230	 C3'	5.631	9.381	8.243	C.3	8	U12	0.000	
231	 O3'	5.243	10.190	7.143	O.3	8	U12	0.000	
232	 C2'	6.480	10.148	9.252	C.3	8	U12	0.000	
233	 O2'	5.959	11.369	9.751	O.3	8	U12	0.000	
234	 C1'	6.505	9.152	10.405	C.3	8	U12	0.000	
235	  N1	7.730	8.345	10.442	N.pl3	8	U12	0.000	
236	  C2	8.901	8.973	10.834	C.2	8	U12	0.000	
237	  O2	8.961	10.164	11.106	O.2	8	U12	0.000	
238	  N3	9.993	8.147	10.922	N.pl3	8	U12	0.000	
239	  C4	10.045	6.798	10.642	C.2	8	U12	0.000	
240	  O4	11.112	6.195	10.761	O.2	8	U12	0.000	
241	  C5	8.798	6.226	10.232	C.2	8	U12	0.000	
242	  C6	7.709	6.999	10.152	C.2	8	U12	0.000	
243	 OP1	2.316	5.418	7.143	O.co2	8	U12	0.000	
244	 OP2	4.420	4.097	7.750	O.co2	8	U12	0.000	
245	 H01	2.776	7.626	9.253	 H	8	U12	0.000	
246	 H02	3.817	9.551	9.411	 H	8	U12	0.000	
247	 H03	6.117	8.584	7.681	 H	8	U12	0.000	
248	 H04	7.419	10.454	8.790	 H	8	U12	0.000	
249	 H05	5.890	12.005	9.035	 H	8	U12	0.000	
250	 H06	6.470	9.708	11.342	 H	8	U12	0.000	
251	 H07	10.856	8.575	11.226	 H	8	U12	0.000	
252	 H08	8.736	5.166	9.986	 H	8	U12	0.000	
253	 H09	6.767	6.545	9.845	 H	8	U12	0.000	
254	 H11	3.328	8.059	7.592	 H	8	U12	0.000	
255	   P	6.337	10.560	6.016	P.3	9	C13	0.000	
256	 C5'	8.091	12.543	5.922	C.3	9	C13	0.000	
257	 O5'	7.159	11.752	6.689	O.3	9	C13	0.000	
258	 C4'	9.248	13.013	6.779	C.3	9	C13	0.000	
259	 O4'	9.376	12.195	7.979	O.3	9	C13	0.000	
260	 C3'	10.625	12.887	6.148	C.3	9	C13	0.000	
261	 O3'	10.878	13.807	5.085	 O	9	C13	0.000	
262	 C2'	11.512	13.004	7.375	C.3	9	C13	0.000	
263	 O2'	11.571	14.310	7.916	O.3	9	C13	0.000	
264	 C1'	10.753	12.092	8.340	C.3	9	C13	0.000	
265	  N1	11.157	10.672	8.268	N.pl3	9	C13	0.000	
266	  C2	12.459	10.320	8.651	C.2	9	C13	0.000	
267	  O2	13.233	11.210	9.039	O.2	9	C13	0.000	
268	  N3	12.837	9.020	8.597	N.2	9	C13	0.000	
269	  C4	11.968	8.090	8.192	C.2	9	C13	0.000	
270	  N4	12.382	6.821	8.156	N.pl3	9	C13	0.000	
271	  C5	10.637	8.422	7.796	C.2	9	C13	0.000	
272	  C6	10.279	9.712	7.848	C.2	9	C13	0.000	
273	 OP1	5.606	11.090	4.835	O.co2	9	C13	0.000	
274	 OP2	7.248	9.392	5.849	O.co2	9	C13	0.000	
275	 H01	7.572	13.412	5.517	 H	9	C13	0.000	
276	 H02	8.996	14.059	6.952	 H	9	C13	0.000	
277	 H03	10.792	11.962	5.597	 H	9	C13	0.000	
278	 H04	12.553	12.754	7.169	 H	9	C13	0.000	
279	 H05	11.977	14.279	8.786	 H	9	C13	0.000	
280	 H06	10.966	12.412	9.360	 H	9	C13	0.000	
281	 H07	11.752	6.093	7.851	 H	9	C13	0.000	
282	 H08	13.325	6.589	8.433	 H	9	C13	0.000	
283	 H09	9.938	7.654	7.464	 H	9	C13	0.000	
284	 H10	8.488	11.924	5.118	 H	9	C13	0.000	
285	 H11	9.271	10.001	7.550	 H	9	C13	0.000	
286	   P	10.911	16.565	31.655	P.3	10	LCC101	0.000	
287	 O1P	10.509	15.124	31.853	O.co2	10	LCC101	0.000	
288	 O2P	10.272	17.434	30.693	O.co2	10	LCC101	0.000	
289	 C6'	15.865	17.664	32.101	C.3	10	LCC101	0.000	
290	 C5'	13.343	17.491	31.962	C.3	10	LCC101	0.000	
291	 O5'	12.463	16.627	31.215	O.3	10	LCC101	0.000	
292	 C4'	14.640	16.723	32.172	C.3	10	LCC101	0.000	
293	 O4'	14.614	15.931	33.400	O.3	10	LCC101	0.000	
294	 C3'	14.987	15.693	31.184	C.3	10	LCC101	0.000	
295	 O3'	15.346	16.128	29.863	O.3	10	LCC101	0.000	
296	 C2'	16.245	15.346	31.897	C.3	10	LCC101	0.000	
297	 O2'	16.947	16.634	31.809	O.3	10	LCC101	0.000	
298	 C1'	15.716	15.070	33.277	C.3	10	LCC101	0.000	
299	  N1	15.110	13.740	33.491	N.2	10	LCC101	0.000	
300	  C2	15.912	12.717	33.886	C.2	10	LCC101	0.000	
301	  O2	17.128	12.904	34.014	O.2	10	LCC101	0.000	
302	  N3	15.414	11.493	34.162	N.2	10	LCC101	0.000	
303	  C4	14.101	11.240	34.033	C.2	10	LCC101	0.000	
304	  N4	13.674	9.989	34.315	N.pl3	10	LCC101	0.000	
305	  C5	13.210	12.273	33.641	C.2	10	LCC101	0.000	
306	 C5M	11.846	12.120	33.460	C.3	10	LCC101	0.000	
307	  C6	13.709	13.546	33.371	C.2	10	LCC101	0.000	
308	 H01	15.771	18.397	31.300	 H	10	LCC101	0.000	
309	 H02	13.523	18.423	31.426	 H	10	LCC101	0.000	
310	 H03	12.895	17.743	32.923	 H	10	LCC101	0.000	
311	 H04	14.191	14.980	30.969	 H	10	LCC101	0.000	
312	 H05	16.882	14.527	31.562	 H	10	LCC101	0.000	
313	 H06	16.558	15.173	33.961	 H	10	LCC101	0.000	
314	 H07	12.693	9.761	34.240	 H	10	LCC101	0.000	
315	 H08	14.336	9.282	34.601	 H	10	LCC101	0.000	
316	 H09	11.355	13.088	33.565	 H	10	LCC101	0.000	
317	 H10	11.653	11.722	32.464	 H	10	LCC101	0.000	
318	 H11	11.455	11.431	34.209	 H	10	LCC101	0.000	
319	 H12	16.033	18.279	32.985	 H	10	LCC101	0.000	
320	 H13	13.048	14.362	33.079	 H	10	LCC101	0.000	
321	   P	15.160	15.276	28.516	P.3	11	LCG102	0.000	
322	 C6'	20.061	13.738	28.737	C.3	11	LCG102	0.000	
323	 C5'	17.751	14.711	28.733	C.3	11	LCG102	0.000	
324	 O5'	16.389	14.251	28.555	O.3	11	LCG102	0.000	
325	 C4'	18.610	13.498	28.990	C.3	11	LCG102	0.000	
326	 O4'	18.397	13.001	30.350	O.3	11	LCG102	0.000	
327	 C3'	18.257	12.348	28.144	C.3	11	LCG102	0.000	
328	 O3'	18.528	12.600	26.717	O.3	11	LCG102	0.000	
329	 C2'	19.255	11.499	28.832	C.3	11	LCG102	0.000	
330	 O2'	20.490	12.290	28.656	O.3	11	LCG102	0.000	
331	 C1'	18.782	11.603	30.267	C.3	11	LCG102	0.000	
332	  N1	17.136	7.180	32.155	N.2	11	LCG102	0.000	
333	  C2	18.439	7.629	31.825	C.2	11	LCG102	0.000	
334	  N2	19.511	6.879	32.008	N.pl3	11	LCG102	0.000	
335	  N3	18.607	8.844	31.322	N.2	11	LCG102	0.000	
336	  C4	17.552	9.642	31.140	C.2	11	LCG102	0.000	
337	  C5	16.297	9.249	31.414	C.2	11	LCG102	0.000	
338	  C6	16.058	8.047	31.924	C.2	11	LCG102	0.000	
339	  O6	14.915	7.689	32.196	O.2	11	LCG102	0.000	
340	  N7	15.489	10.256	31.118	N.2	11	LCG102	0.000	
341	  C8	16.244	11.261	30.632	C.2	11	LCG102	0.000	
342	  N9	17.531	10.890	30.660	N.pl3	11	LCG102	0.000	
343	 OP1	15.413	16.373	27.529	O.co2	11	LCG102	0.000	
344	 OP2	13.876	14.440	28.539	O.co2	11	LCG102	0.000	
345	 H01	20.237	14.276	27.806	 H	11	LCG102	0.000	
346	 H02	18.095	15.243	27.846	 H	11	LCG102	0.000	
347	 H03	17.806	15.393	29.581	 H	11	LCG102	0.000	
348	 H04	17.229	11.993	28.076	 H	11	LCG102	0.000	
349	 H05	19.387	10.465	28.513	 H	11	LCG102	0.000	
350	 H06	19.572	11.187	30.893	 H	11	LCG102	0.000	
351	 H07	20.424	7.235	31.764	 H	11	LCG102	0.000	
352	 H08	19.418	5.950	32.392	 H	11	LCG102	0.000	
353	 H09	15.869	12.220	30.274	 H	11	LCG102	0.000	
354	 H14	20.583	14.356	29.468	 H	11	LCG102	0.000	
355	 C6'	22.478	-5.227	3.293	C.3	12	LKC104	0.000	
356	 C5'	20.267	-5.282	4.684	C.3	12	LKC104	0.000	
357	 O5'	19.167	-5.869	3.987	O.3	12	LKC104	0.000	
358	 C4'	21.081	-4.637	3.578	C.3	12	LKC104	0.000	
359	 O4'	20.365	-4.547	2.312	O.3	12	LKC104	0.000	
360	 C3'	21.356	-3.196	3.902	C.3	12	LKC104	0.000	
361	 O3'	22.279	-3.004	4.973	O.3	12	LKC104	0.000	
362	 C2'	22.002	-2.970	2.612	C.3	12	LKC104	0.000	
363	 O2'	22.984	-4.072	2.500	O.3	12	LKC104	0.000	
364	 C1'	20.795	-3.271	1.762	C.3	12	LKC104	0.000	
365	  N1	19.641	-2.318	1.888	N.2	12	LKC104	0.000	
366	  C2	19.773	-0.986	1.711	C.2	12	LKC104	0.000	
367	  O2	20.863	-0.484	1.456	O.2	12	LKC104	0.000	
368	  N3	18.725	-0.155	1.814	N.2	12	LKC104	0.000	
369	  C4	17.497	-0.619	2.098	C.2	12	LKC104	0.000	
370	  N4	16.434	0.191	2.205	N.pl3	12	LKC104	0.000	
371	  C5	17.286	-1.981	2.291	C.2	12	LKC104	0.000	
372	 C5A	16.023	-2.487	2.584	C.3	12	LKC104	0.000	
373	  C6	18.370	-2.840	2.187	C.2	12	LKC104	0.000	
374	 H01	23.055	-5.399	4.201	 H	12	LKC104	0.000	
375	 H02	20.838	-6.007	5.265	 H	12	LKC104	0.000	
376	 H03	19.922	-4.537	5.401	 H	12	LKC104	0.000	
377	 H04	18.878	-6.658	4.451	 H	12	LKC104	0.000	
378	 H05	20.519	-2.577	4.224	 H	12	LKC104	0.000	
379	 H06	22.501	-2.024	2.402	 H	12	LKC104	0.000	
380	 H07	21.065	-3.227	0.707	 H	12	LKC104	0.000	
381	 H08	15.525	-0.194	2.419	 H	12	LKC104	0.000	
382	 H09	22.513	-6.207	2.817	 H	12	LKC104	0.000	
383	 H10	16.542	1.186	2.072	 H	12	LKC104	0.000	
384	 H11	15.308	-2.127	1.845	 H	12	LKC104	0.000	
385	 H12	16.053	-3.576	2.560	 H	12	LKC104	0.000	
386	 H13	15.718	-2.153	3.576	 H	12	LKC104	0.000	
387	 H14	18.238	-3.912	2.336	 H	12	LKC104	0.000	
388	   P	22.378	-3.449	6.519	P.3	13	LCC105	0.000	
389	 O1P	22.467	-4.865	6.945	O.co2	13	LCC105	0.000	
390	 O2P	21.038	-2.829	6.382	O.co2	13	LCC105	0.000	
391	 C6'	24.768	0.623	6.070	C.3	13	LCC105	0.000	
392	 C5'	24.321	-1.612	6.988	C.3	13	LCC105	0.000	
393	 O5'	23.281	-2.484	7.479	O.3	13	LCC105	0.000	
394	 C4'	23.655	-0.351	6.456	C.3	13	LCC105	0.000	
395	 O4'	22.686	-0.459	5.341	O.3	13	LCC105	0.000	
396	 C3'	22.754	0.402	7.427	C.3	13	LCC105	0.000	
397	 O3'	23.306	0.747	8.775	O.3	13	LCC105	0.000	
398	 C2'	22.693	1.577	6.484	C.3	13	LCC105	0.000	
399	 O2'	24.071	1.907	6.244	O.3	13	LCC105	0.000	
400	 C1'	22.135	0.920	5.224	C.3	13	LCC105	0.000	
401	  N1	20.651	1.215	5.069	N.2	13	LCC105	0.000	
402	  C2	20.303	2.450	4.658	C.2	13	LCC105	0.000	
403	  O2	21.190	3.266	4.433	O.2	13	LCC105	0.000	
404	  N3	19.028	2.831	4.462	N.2	13	LCC105	0.000	
405	  C4	18.020	1.972	4.701	C.2	13	LCC105	0.000	
406	  N4	16.747	2.356	4.509	N.pl3	13	LCC105	0.000	
407	  C5	18.288	0.660	5.147	C.2	13	LCC105	0.000	
408	 C5M	17.279	-0.275	5.411	C.3	13	LCC105	0.000	
409	  C6	19.626	0.281	5.328	C.2	13	LCC105	0.000	
410	 H01	25.628	0.537	6.735	 H	13	LCC105	0.000	
411	 H02	25.021	-1.366	7.786	 H	13	LCC105	0.000	
412	 H03	24.874	-2.106	6.189	 H	13	LCC105	0.000	
413	 H04	21.855	-0.102	7.781	 H	13	LCC105	0.000	
414	 H05	22.128	2.450	6.811	 H	13	LCC105	0.000	
415	 H06	22.429	1.289	4.242	 H	13	LCC105	0.000	
416	 H07	15.992	1.709	4.686	 H	13	LCC105	0.000	
417	 H08	16.545	3.292	4.187	 H	13	LCC105	0.000	
418	 H09	16.391	-0.024	4.831	 H	13	LCC105	0.000	
419	 H10	17.624	-1.271	5.134	 H	13	LCC105	0.000	
420	 H11	17.035	-0.257	6.473	 H	13	LCC105	0.000	
421	 H12	19.872	-0.726	5.666	 H	13	LCC105	0.000	
422	 H15	25.187	0.464	5.076	 H	13	LCC105	0.000	
423	   P	22.771	0.666	10.334	P.3	14	LCC106	0.000	
424	 O1P	21.672	-0.144	10.753	O.co2	14	LCC106	0.000	
425	 O2P	24.238	0.262	10.452	O.co2	14	LCC106	0.000	
426	 C6'	24.791	4.746	9.625	C.3	14	LCC106	0.000	
427	 C5'	23.935	2.905	11.072	C.3	14	LCC106	0.000	
428	 O5'	22.760	2.097	11.171	O.3	14	LCC106	0.000	
429	 C4'	23.550	3.974	10.065	C.3	14	LCC106	0.000	
430	 O4'	22.813	3.630	8.892	O.3	14	LCC106	0.000	
431	 C3'	22.657	5.000	10.659	C.3	14	LCC106	0.000	
432	 O3'	23.377	5.422	11.638	O.3	14	LCC106	0.000	
433	 C2'	22.733	5.875	9.521	C.3	14	LCC106	0.000	
434	 O2'	24.169	6.077	9.449	O.3	14	LCC106	0.000	
435	 C1'	22.298	4.938	8.430	C.3	14	LCC106	0.000	
436	  N1	20.833	4.916	8.242	N.2	14	LCC106	0.000	
437	  C2	20.114	6.037	8.026	C.2	14	LCC106	0.000	
438	  O2	20.645	7.162	8.001	O.2	14	LCC106	0.000	
439	  N3	18.788	5.921	7.830	N.2	14	LCC106	0.000	
440	  C4	18.136	4.736	7.846	C.2	14	LCC106	0.000	
441	  N4	16.815	4.623	7.659	N.pl3	14	LCC106	0.000	
442	  C5	18.838	3.561	8.054	C.2	14	LCC106	0.000	
443	 C5M	18.247	2.296	8.102	C.3	14	LCC106	0.000	
444	  C6	20.192	3.674	8.249	C.2	14	LCC106	0.000	
445	 H01	25.566	4.752	10.392	 H	14	LCC106	0.000	
446	 H02	24.246	3.319	12.031	 H	14	LCC106	0.000	
447	 H03	24.782	2.319	10.714	 H	14	LCC106	0.000	
448	 H04	21.648	4.796	11.017	 H	14	LCC106	0.000	
449	 H05	22.178	6.813	9.507	 H	14	LCC106	0.000	
450	 H06	22.678	5.233	7.452	 H	14	LCC106	0.000	
451	 H07	16.378	3.712	7.677	 H	14	LCC106	0.000	
452	 H08	16.255	5.448	7.500	 H	14	LCC106	0.000	
453	 H09	17.284	2.326	7.591	 H	14	LCC106	0.000	
454	 H10	18.896	1.572	7.610	 H	14	LCC106	0.000	
455	 H11	18.097	2.003	9.141	 H	14	LCC106	0.000	
456	 H12	20.782	2.772	8.413	 H	14	LCC106	0.000	
457	 H13	25.312	4.348	8.754	 H	14	LCC106	0.000	
458	   P	19.579	8.534	15.560	P.3	15	A5	0.000	
459	 C5'	19.175	11.021	16.297	C.3	15	A5	0.000	
460	 O5'	18.663	9.680	16.187	O.3	15	A5	0.000	
461	 C4'	18.169	11.988	15.742	C.3	15	A5	0.000	
462	 O4'	17.913	11.702	14.339	O.3	15	A5	0.000	
463	 C3'	16.801	11.911	16.404	C.3	15	A5	0.000	
464	 O3'	16.758	12.610	17.662	O.3	15	A5	0.000	
465	 C2'	15.917	12.490	15.316	C.3	15	A5	0.000	
466	 O2'	16.083	13.883	15.342	O.3	15	A5	0.000	
467	 C1'	16.528	11.860	14.066	C.3	15	A5	0.000	
468	  N1	12.473	9.344	12.138	N.2	15	A5	0.000	
469	  C2	12.711	10.647	12.342	C.2	15	A5	0.000	
470	  N3	13.794	11.236	12.853	N.2	15	A5	0.000	
471	  C4	14.721	10.320	13.186	C.2	15	A5	0.000	
472	  C5	14.619	8.948	13.037	C.2	15	A5	0.000	
473	  C6	13.428	8.453	12.480	C.2	15	A5	0.000	
474	  N6	13.197	7.160	12.268	N.pl3	15	A5	0.000	
475	  N7	15.779	8.320	13.469	N.2	15	A5	0.000	
476	  C8	16.537	9.308	13.881	C.2	15	A5	0.000	
477	  N9	15.965	10.547	13.727	N.pl3	15	A5	0.000	
478	 OP1	20.624	8.416	16.730	O.co2	15	A5	0.000	
479	 OP2	18.895	7.204	15.612	O.co2	15	A5	0.000	
480	 H01	20.106	11.102	15.736	 H	15	A5	0.000	
481	 H02	18.614	12.967	15.918	 H	15	A5	0.000	
482	 H03	16.489	10.912	16.707	 H	15	A5	0.000	
483	 H04	14.847	12.297	15.396	 H	15	A5	0.000	
484	 H05	16.128	14.183	16.253	 H	15	A5	0.000	
485	 H06	16.319	12.508	13.215	 H	15	A5	0.000	
486	 H07	11.906	11.321	12.049	 H	15	A5	0.000	
487	 H08	13.897	6.475	12.514	 H	15	A5	0.000	
488	 H09	12.321	6.863	11.861	 H	15	A5	0.000	
489	 H10	17.529	9.159	14.306	 H	15	A5	0.000	
490	 H23	19.362	11.253	17.345	 H	15	A5	0.000	
491	   P	15.793	12.063	18.833	P.3	16	C6	0.000	
492	 C5'	13.994	13.855	17.999	C.3	16	C6	0.000	
493	 O5'	14.326	12.510	18.386	O.3	16	C6	0.000	
494	 C4'	12.629	13.866	17.348	C.3	16	C6	0.000	
495	 O4'	12.674	13.170	16.065	O.3	16	C6	0.000	
496	 C3'	11.527	13.158	18.131	C.3	16	C6	0.000	
497	 O3'	10.908	14.006	19.095	O.3	16	C6	0.000	
498	 C2'	10.531	12.817	17.035	C.3	16	C6	0.000	
499	 O2'	9.738	13.938	16.711	O.3	16	C6	0.000	
500	 C1'	11.460	12.452	15.875	C.3	16	C6	0.000	
501	  N1	11.732	10.991	15.765	N.pl3	16	C6	0.000	
502	  C2	10.753	10.185	15.167	C.2	16	C6	0.000	
503	  O2	9.715	10.716	14.748	O.2	16	C6	0.000	
504	  N3	10.981	8.858	15.023	N.2	16	C6	0.000	
505	  C4	12.110	8.323	15.491	C.2	16	C6	0.000	
506	  N4	12.282	7.009	15.348	N.pl3	16	C6	0.000	
507	  C5	13.114	9.115	16.130	C.2	16	C6	0.000	
508	  C6	12.889	10.433	16.236	C.2	16	C6	0.000	
509	 OP1	16.173	12.735	20.098	O.co2	16	C6	0.000	
510	 OP2	15.805	10.578	18.764	O.co2	16	C6	0.000	
511	 H01	14.738	14.226	17.293	 H	16	C6	0.000	
512	 H02	12.392	14.928	17.275	 H	16	C6	0.000	
513	 H03	11.902	12.307	18.700	 H	16	C6	0.000	
514	 H04	9.825	12.031	17.303	 H	16	C6	0.000	
515	 H05	9.534	13.926	15.773	 H	16	C6	0.000	
516	 H06	10.970	12.723	14.940	 H	16	C6	0.000	
517	 H07	13.124	6.570	15.691	 H	16	C6	0.000	
518	 H08	11.570	6.453	14.897	 H	16	C6	0.000	
519	 H09	14.028	8.665	16.517	 H	16	C6	0.000	
520	 H10	13.640	11.069	16.705	 H	16	C6	0.000	
521	 H11	13.983	14.496	18.881	 H	16	C6	0.000	
522	   P	10.109	13.378	20.354	P.3	17	U7	0.000	
523	 C5'	7.752	13.383	19.141	C.3	17	U7	0.000	
524	 O5'	8.866	12.627	19.673	O.3	17	U7	0.000	
525	 C4'	6.659	12.480	18.599	C.3	17	U7	0.000	
526	 O4'	7.190	11.614	17.562	O.3	17	U7	0.000	
527	 C3'	6.034	11.503	19.583	C.3	17	U7	0.000	
528	 O3'	5.065	12.094	20.437	O.3	17	U7	0.000	
529	 C2'	5.407	10.466	18.658	C.3	17	U7	0.000	
530	 O2'	4.096	10.778	18.230	O.3	17	U7	0.000	
531	 C1'	6.414	10.423	17.504	C.3	17	U7	0.000	
532	  N1	7.323	9.267	17.570	N.pl3	17	U7	0.000	
533	  C2	6.847	8.065	17.092	C.2	17	U7	0.000	
534	  O2	5.717	7.930	16.651	O.2	17	U7	0.000	
535	  N3	7.735	7.021	17.165	N.pl3	17	U7	0.000	
536	  C4	9.021	7.052	17.660	C.2	17	U7	0.000	
537	  O4	9.689	6.018	17.671	O.2	17	U7	0.000	
538	  C5	9.441	8.331	18.145	C.2	17	U7	0.000	
539	  C6	8.592	9.366	18.102	C.2	17	U7	0.000	
540	 OP1	9.584	14.507	21.156	O.co2	17	U7	0.000	
541	 OP2	10.997	12.375	21.012	O.co2	17	U7	0.000	
542	 H01	8.113	14.023	18.335	 H	17	U7	0.000	
543	 H02	5.906	13.199	18.276	 H	17	U7	0.000	
544	 H03	6.765	11.098	20.282	 H	17	U7	0.000	
545	 H04	5.252	9.507	19.152	 H	17	U7	0.000	
546	 H05	3.756	10.061	17.689	 H	17	U7	0.000	
547	 H06	5.853	10.334	16.574	 H	17	U7	0.000	
548	 H07	7.410	6.130	16.817	 H	17	U7	0.000	
549	 H08	10.446	8.462	18.547	 H	17	U7	0.000	
550	 H09	8.917	10.326	18.504	 H	17	U7	0.000	
551	 H11	7.328	13.974	19.953	 H	17	U7	0.000	
552	   P	4.895	11.566	21.961	P.3	18	U8	0.000	
553	 C5'	2.837	10.044	21.368	C.3	18	U8	0.000	
554	 O5'	4.217	10.134	21.782	O.3	18	U8	0.000	
555	 C4'	2.400	8.603	21.270	C.3	18	U8	0.000	
556	 O4'	3.042	7.977	20.127	O.3	18	U8	0.000	
557	 C3'	2.779	7.694	22.429	C.3	18	U8	0.000	
558	 O3'	1.911	7.797	23.553	O.3	18	U8	0.000	
559	 C2'	2.651	6.328	21.778	C.3	18	U8	0.000	
560	 O2'	1.315	5.870	21.672	O.3	18	U8	0.000	
561	 C1'	3.262	6.599	20.404	C.3	18	U8	0.000	
562	  N1	4.709	6.320	20.374	N.pl3	18	U8	0.000	
563	  C2	5.097	5.026	20.082	C.2	18	U8	0.000	
564	  O2	4.301	4.132	19.853	O.2	18	U8	0.000	
565	  N3	6.454	4.815	20.079	N.pl3	18	U8	0.000	
566	  C4	7.445	5.744	20.330	C.2	18	U8	0.000	
567	  O4	8.624	5.394	20.302	O.2	18	U8	0.000	
568	  C5	6.965	7.058	20.640	C.2	18	U8	0.000	
569	  C6	5.646	7.295	20.659	C.2	18	U8	0.000	
570	 OP1	3.940	12.484	22.647	O.co2	18	U8	0.000	
571	 OP2	6.242	11.377	22.566	O.co2	18	U8	0.000	
572	 H01	2.724	10.520	20.394	 H	18	U8	0.000	
573	 H02	1.314	8.685	21.225	 H	18	U8	0.000	
574	 H03	3.758	7.932	22.845	 H	18	U8	0.000	
575	 H04	3.133	5.536	22.351	 H	18	U8	0.000	
576	 H05	1.003	5.589	22.535	 H	18	U8	0.000	
577	 H06	2.799	5.947	19.663	 H	18	U8	0.000	
578	 H07	6.762	3.876	19.870	 H	18	U8	0.000	
579	 H08	7.669	7.861	20.859	 H	18	U8	0.000	
580	 H09	5.298	8.297	20.909	 H	18	U8	0.000	
581	 H10	2.216	10.547	22.109	 H	18	U8	0.000	
582	   P	2.455	7.513	25.039	P.3	19	A9	0.000	
583	 C5'	1.456	5.105	25.315	C.3	19	A9	0.000	
584	 O5'	2.601	5.929	25.103	O.3	19	A9	0.000	
585	 C4'	1.755	3.684	24.927	C.3	19	A9	0.000	
586	 O4'	2.445	3.627	23.658	O.3	19	A9	0.000	
587	 C3'	2.703	2.953	25.858	C.3	19	A9	0.000	
588	 O3'	1.937	2.661	27.004	O.3	19	A9	0.000	
589	 C2'	3.155	1.792	24.978	C.3	19	A9	0.000	
590	 O2'	2.306	0.667	24.813	O.3	19	A9	0.000	
591	 C1'	3.306	2.499	23.636	C.3	19	A9	0.000	
592	  N1	8.129	1.202	22.460	N.2	19	A9	0.000	
593	  C2	7.008	0.477	22.586	C.2	19	A9	0.000	
594	  N3	5.779	0.879	22.893	N.2	19	A9	0.000	
595	  C4	5.752	2.209	23.091	C.2	19	A9	0.000	
596	  C5	6.819	3.081	23.013	C.2	19	A9	0.000	
597	  C6	8.063	2.536	22.665	C.2	19	A9	0.000	
598	  N6	9.179	3.258	22.555	N.pl3	19	A9	0.000	
599	  N7	6.413	4.381	23.280	N.2	19	A9	0.000	
600	  C8	5.133	4.265	23.529	C.2	19	A9	0.000	
601	  N9	4.666	2.978	23.429	N.pl3	19	A9	0.000	
602	 OP1	1.393	7.923	25.986	O.co2	19	A9	0.000	
603	 OP2	3.808	8.090	25.156	O.co2	19	A9	0.000	
604	 H01	0.628	5.477	24.711	 H	19	A9	0.000	
605	 H02	0.768	3.221	24.933	 H	19	A9	0.000	
606	 H03	3.594	3.449	26.243	 H	19	A9	0.000	
607	 H04	4.024	1.320	25.436	 H	19	A9	0.000	
608	 H05	2.104	0.289	25.672	 H	19	A9	0.000	
609	 H06	3.064	1.799	22.836	 H	19	A9	0.000	
610	 H07	7.121	-0.593	22.412	 H	19	A9	0.000	
611	 H08	9.153	4.255	22.715	 H	19	A9	0.000	
612	 H09	10.050	2.808	22.312	 H	19	A9	0.000	
613	 H10	1.190	5.135	26.372	 H	19	A9	0.000	
614	 H11	4.498	5.111	23.791	 H	19	A9	0.000	
615	   P	2.653	2.479	28.427	P.3	20	A10	0.000	
616	 C5'	3.009	-0.086	28.216	C.3	20	A10	0.000	
617	 O5'	3.609	1.218	28.214	O.3	20	A10	0.000	
618	 C4'	4.040	-1.147	27.939	C.3	20	A10	0.000	
619	 O4'	4.603	-0.976	26.607	O.3	20	A10	0.000	
620	 C3'	5.270	-1.131	28.835	C.3	20	A10	0.000	
621	 O3'	5.046	-1.636	30.139	O.3	20	A10	0.000	
622	 C2'	6.239	-1.949	27.997	C.3	20	A10	0.000	
623	 O2'	5.905	-3.326	27.961	O.3	20	A10	0.000	
624	 C1'	5.991	-1.326	26.631	C.3	20	A10	0.000	
625	  N1	10.673	0.339	25.399	N.2	20	A10	0.000	
626	  C2	10.178	-0.882	25.635	C.2	20	A10	0.000	
627	  N3	8.942	-1.236	25.965	N.2	20	A10	0.000	
628	  C4	8.146	-0.157	26.055	C.2	20	A10	0.000	
629	  C5	8.512	1.163	25.856	C.2	20	A10	0.000	
630	  C6	9.854	1.407	25.519	C.2	20	A10	0.000	
631	  N6	10.354	2.626	25.291	N.pl3	20	A10	0.000	
632	  N7	7.426	2.007	26.044	N.2	20	A10	0.000	
633	  C8	6.440	1.192	26.329	C.2	20	A10	0.000	
634	  N9	6.809	-0.133	26.367	N.pl3	20	A10	0.000	
635	 OP1	1.595	2.043	29.369	O.co2	20	A10	0.000	
636	 OP2	3.446	3.689	28.689	O.co2	20	A10	0.000	
637	 H01	2.237	-0.127	27.447	 H	20	A10	0.000	
638	 H02	3.477	-2.067	28.096	 H	20	A10	0.000	
639	 H03	5.633	-0.132	29.077	 H	20	A10	0.000	
640	 H04	7.265	-1.925	28.365	 H	20	A10	0.000	
641	 H05	5.825	-3.660	28.857	 H	20	A10	0.000	
642	 H06	6.268	-2.041	25.856	 H	20	A10	0.000	
643	 H07	10.891	-1.702	25.543	 H	20	A10	0.000	
644	 H08	9.759	3.438	25.367	 H	20	A10	0.000	
645	 H09	11.327	2.734	25.043	 H	20	A10	0.000	
646	 H10	5.422	1.532	26.518	 H	20	A10	0.000	
647	 H12	2.573	-0.269	29.198	 H	20	A10	0.000	
648	   P	5.946	-1.112	31.363	P.3	21	G11	0.000	
649	 C5'	7.702	-3.055	30.993	C.3	21	G11	0.000	
650	 O5'	7.470	-1.611	30.999	O.3	21	G11	0.000	
651	 C4'	9.105	-3.423	30.564	C.3	21	G11	0.000	
652	 O4'	9.345	-2.976	29.208	O.3	21	G11	0.000	
653	 C3'	10.269	-2.811	31.352	C.3	21	G11	0.000	
654	 O3'	10.640	-3.540	32.507	O.3	21	G11	0.000	
655	 C2'	11.406	-2.944	30.342	C.3	21	G11	0.000	
656	 O2'	11.895	-4.255	30.140	O.3	21	G11	0.000	
657	 C1'	10.662	-2.480	29.105	C.3	21	G11	0.000	
658	  N1	13.551	1.392	27.807	N.pl3	21	G11	0.000	
659	  C2	13.834	0.042	27.823	C.2	21	G11	0.000	
660	  N2	15.051	-0.342	27.420	N.pl3	21	G11	0.000	
661	  N3	12.950	-0.876	28.201	N.2	21	G11	0.000	
662	  C4	11.759	-0.326	28.557	C.2	21	G11	0.000	
663	  C5	11.388	0.998	28.600	C.2	21	G11	0.000	
664	  C6	12.330	1.974	28.194	C.2	21	G11	0.000	
665	  O6	12.160	3.197	28.130	O.2	21	G11	0.000	
666	  N7	10.068	1.135	29.035	N.2	21	G11	0.000	
667	  C8	9.680	-0.099	29.258	C.2	21	G11	0.000	
668	  N9	10.664	-1.029	28.992	N.pl3	21	G11	0.000	
669	 OP1	5.482	-1.833	32.600	O.co2	21	G11	0.000	
670	 OP2	5.877	0.410	31.433	O.co2	21	G11	0.000	
671	 H01	6.994	-3.519	30.306	 H	21	G11	0.000	
672	 H02	9.108	-4.502	30.722	 H	21	G11	0.000	
673	 H03	10.022	-1.812	31.711	 H	21	G11	0.000	
674	 H04	12.304	-2.405	30.642	 H	21	G11	0.000	
675	 H05	11.987	-4.421	29.199	 H	21	G11	0.000	
676	 H06	11.151	-2.856	28.206	 H	21	G11	0.000	
677	 H07	14.281	2.014	27.491	 H	21	G11	0.000	
678	 H08	15.294	-1.322	27.411	 H	21	G11	0.000	
679	 H09	15.726	0.348	27.125	 H	21	G11	0.000	
680	 H10	8.684	-0.362	29.616	 H	21	G11	0.000	
681	 H11	7.568	-3.412	32.014	 H	21	G11	0.000	
682	   P	11.082	-2.744	33.805	P.3	22	U12	0.000	
683	 C5'	13.461	-3.773	33.136	C.3	22	U12	0.000	
684	 O5'	12.678	-2.662	33.656	O.3	22	U12	0.000	
685	 C4'	14.815	-3.300	32.634	C.3	22	U12	0.000	
686	 O4'	14.694	-2.545	31.392	O.3	22	U12	0.000	
687	 C3'	15.547	-2.326	33.539	C.3	22	U12	0.000	
688	 O3'	16.140	-2.934	34.670	O.3	22	U12	0.000	
689	 C2'	16.582	-1.744	32.584	C.3	22	U12	0.000	
690	 O2'	17.682	-2.608	32.454	O.3	22	U12	0.000	
691	 C1'	15.756	-1.588	31.308	C.3	22	U12	0.000	
692	  N1	15.173	-0.238	31.218	N.pl3	22	U12	0.000	
693	  C2	15.926	0.762	30.614	C.2	22	U12	0.000	
694	  O2	17.025	0.557	30.105	O.2	22	U12	0.000	
695	  N3	15.330	1.999	30.599	N.pl3	22	U12	0.000	
696	  C4	14.094	2.338	31.123	C.2	22	U12	0.000	
697	  O4	13.690	3.495	31.015	O.2	22	U12	0.000	
698	  C5	13.386	1.253	31.747	C.2	22	U12	0.000	
699	  C6	13.947	0.042	31.799	C.2	22	U12	0.000	
700	 OP1	10.763	-3.601	34.978	O.co2	22	U12	0.000	
701	 OP2	10.493	-1.372	33.711	O.co2	22	U12	0.000	
702	 H01	12.918	-4.238	32.313	 H	22	U12	0.000	
703	 H02	15.360	-4.240	32.551	 H	22	U12	0.000	
704	 H03	14.887	-1.587	33.993	 H	22	U12	0.000	
705	 H04	17.040	-0.806	32.899	 H	22	U12	0.000	
706	 H05	17.925	-2.680	31.528	 H	22	U12	0.000	
707	 H06	16.385	-1.742	30.431	 H	22	U12	0.000	
708	 H07	15.850	2.743	30.157	 H	22	U12	0.000	
709	 H08	12.397	1.418	32.175	 H	22	U12	0.000	
710	 H09	13.419	-0.757	32.319	 H	22	U12	0.000	
711	 H11	13.622	-4.490	33.941	 H	22	U12	0.000	
712	   P	16.310	-2.075	36.007	P.3	23	C13	0.000	
713	 C5'	18.754	-1.186	35.415	C.3	23	C13	0.000	
714	 O5'	17.352	-0.926	35.616	O.3	23	C13	0.000	
715	 C4'	19.439	-0.022	34.711	C.3	23	C13	0.000	
716	 O4'	18.653	0.456	33.582	O.3	23	C13	0.000	
717	 C3'	19.643	1.255	35.502	C.3	23	C13	0.000	
718	 O3'	20.648	1.127	36.506	O.3	23	C13	0.000	
719	 C2'	19.995	2.225	34.376	C.3	23	C13	0.000	
720	 O2'	21.280	2.135	33.797	O.3	23	C13	0.000	
721	 C1'	18.966	1.817	33.326	C.3	23	C13	0.000	
722	  N1	17.742	2.630	33.448	N.pl3	23	C13	0.000	
723	  C2	17.779	3.938	32.968	C.2	23	C13	0.000	
724	  O2	18.828	4.356	32.445	O.2	23	C13	0.000	
725	  N3	16.681	4.719	33.084	N.2	23	C13	0.000	
726	  C4	15.589	4.247	33.692	C.2	23	C13	0.000	
727	  N4	14.535	5.057	33.801	N.pl3	23	C13	0.000	
728	  C5	15.533	2.922	34.218	C.2	23	C13	0.000	
729	  C6	16.619	2.152	34.067	C.2	23	C13	0.000	
730	 OP1	16.908	-2.964	37.037	O.co2	23	C13	0.000	
731	 OP2	15.011	-1.378	36.271	O.co2	23	C13	0.000	
732	 H01	18.865	-2.084	34.808	 H	23	C13	0.000	
733	 H02	20.400	-0.479	34.476	 H	23	C13	0.000	
734	 H03	18.786	1.573	36.096	 H	23	C13	0.000	
735	 H04	19.990	3.246	34.757	 H	23	C13	0.000	
736	 H05	21.524	2.985	33.424	 H	23	C13	0.000	
737	 H06	19.363	1.965	32.322	 H	23	C13	0.000	
738	 H07	13.694	4.733	34.256	 H	23	C13	0.000	
739	 H08	14.578	5.995	33.429	 H	23	C13	0.000	
740	 H09	14.641	2.551	34.723	 H	23	C13	0.000	
741	 H10	19.221	-1.320	36.391	 H	23	C13	0.000	
742	 H11	16.608	1.129	34.443	 H	23	C13	0.000	
743	 C6'	5.306	18.179	38.930	C.3	24	LKC101	0.000	
744	 C5'	3.118	17.031	38.228	C.3	24	LKC101	0.000	
745	 O5'	2.628	15.644	38.179	O.3	24	LKC101	0.000	
746	 C4'	4.566	16.850	38.549	C.3	24	LKC101	0.000	
747	 O4'	4.807	15.834	39.608	O.3	24	LKC101	0.000	
748	 C3'	5.338	16.125	37.487	C.3	24	LKC101	0.000	
749	 O3'	5.189	16.632	36.110	O.3	24	LKC101	0.000	
750	 C2'	6.659	16.446	38.248	C.3	24	LKC101	0.000	
751	 O2'	6.676	17.914	38.451	O.3	24	LKC101	0.000	
752	 C1'	6.316	15.729	39.562	C.3	24	LKC101	0.000	
753	  N1	6.782	14.328	39.615	N.2	24	LKC101	0.000	
754	  C2	8.078	14.019	39.846	C.2	24	LKC101	0.000	
755	  O2	8.948	14.898	40.023	O.2	24	LKC101	0.000	
756	  N3	8.444	12.722	39.883	N.2	24	LKC101	0.000	
757	  C4	7.542	11.727	39.730	C.2	24	LKC101	0.000	
758	  N4	7.867	10.433	39.769	N.pl3	24	LKC101	0.000	
759	  C5	6.206	12.017	39.484	C.2	24	LKC101	0.000	
760	 C5A	5.247	11.030	39.291	C.3	24	LKC101	0.000	
761	  C6	5.826	13.340	39.428	C.2	24	LKC101	0.000	
762	 H01	4.867	19.038	38.422	 H	24	LKC101	0.000	
763	 H02	2.588	17.654	38.948	 H	24	LKC101	0.000	
764	 H03	2.986	17.531	37.268	 H	24	LKC101	0.000	
765	 H04	2.517	15.312	39.073	 H	24	LKC101	0.000	
766	 H05	5.106	15.093	37.224	 H	24	LKC101	0.000	
767	 H06	7.609	16.161	37.796	 H	24	LKC101	0.000	
768	 H07	6.815	16.177	40.421	 H	24	LKC101	0.000	
769	 H08	7.155	9.729	39.635	 H	24	LKC101	0.000	
770	 H09	8.825	10.158	39.932	 H	24	LKC101	0.000	
771	 H10	4.359	11.471	38.838	 H	24	LKC101	0.000	
772	 H11	5.646	10.259	38.632	 H	24	LKC101	0.000	
773	 H12	5.251	18.425	39.991	 H	24	LKC101	0.000	
774	 H13	4.982	10.587	40.251	 H	24	LKC101	0.000	
775	 H14	4.786	13.607	39.239	 H	24	LKC101	0.000	
776	   P	5.805	16.323	34.622	P.3	25	LCC102	0.000	
777	 O1P	5.834	14.875	34.993	O.co2	25	LCC102	0.000	
778	 O2P	4.841	16.823	33.613	O.co2	25	LCC102	0.000	
779	 C6'	10.246	18.867	35.445	C.3	25	LCC102	0.000	
780	 C5'	7.952	17.938	35.033	C.3	25	LCC102	0.000	
781	 O5'	7.328	16.889	34.230	O.3	25	LCC102	0.000	
782	 C4'	9.397	17.597	35.306	C.3	25	LCC102	0.000	
783	 O4'	9.640	16.873	36.511	O.3	25	LCC102	0.000	
784	 C3'	10.120	16.744	34.290	C.3	25	LCC102	0.000	
785	 O3'	10.275	17.313	32.972	O.3	25	LCC102	0.000	
786	 C2'	11.416	16.892	35.031	C.3	25	LCC102	0.000	
787	 O2'	11.566	18.323	35.015	O.3	25	LCC102	0.000	
788	 C1'	11.043	16.415	36.380	C.3	25	LCC102	0.000	
789	  N1	11.170	14.958	36.498	N.2	25	LCC102	0.000	
790	  C2	12.385	14.360	36.697	C.2	25	LCC102	0.000	
791	  O2	13.452	14.962	36.780	O.2	25	LCC102	0.000	
792	  N3	12.447	13.053	36.833	N.2	25	LCC102	0.000	
793	  C4	11.336	12.264	36.754	C.2	25	LCC102	0.000	
794	  N4	11.428	10.935	36.913	N.pl3	25	LCC102	0.000	
795	  C5	10.074	12.802	36.565	C.2	25	LCC102	0.000	
796	 C5M	8.939	11.994	36.490	C.3	25	LCC102	0.000	
797	  C6	9.984	14.172	36.420	C.2	25	LCC102	0.000	
798	 H01	9.899	19.664	34.787	 H	25	LCC102	0.000	
799	 H02	7.907	18.879	34.485	 H	25	LCC102	0.000	
800	 H03	7.419	18.033	35.979	 H	25	LCC102	0.000	
801	 H04	9.670	15.779	34.058	 H	25	LCC102	0.000	
802	 H05	12.311	16.385	34.671	 H	25	LCC102	0.000	
803	 H06	11.689	16.799	37.170	 H	25	LCC102	0.000	
804	 H07	10.597	10.363	36.873	 H	25	LCC102	0.000	
805	 H08	12.329	10.507	37.073	 H	25	LCC102	0.000	
806	 H09	8.129	12.550	36.018	 H	25	LCC102	0.000	
807	 H10	9.163	11.106	35.898	 H	25	LCC102	0.000	
808	 H11	8.638	11.696	37.494	 H	25	LCC102	0.000	
809	 H12	9.018	14.646	36.248	 H	25	LCC102	0.000	
810	 H15	10.232	19.331	36.431	 H	25	LCC102	0.000	
811	   P	22.954	5.217	13.255	P.3	26	LCG104	0.000	
812	 C6'	22.237	10.225	12.597	C.3	26	LCG104	0.000	
813	 C5'	22.608	7.793	13.211	C.3	26	LCG104	0.000	
814	 O5'	22.273	6.551	13.342	O.3	26	LCG104	0.000	
815	 C4'	21.692	8.805	12.595	C.3	26	LCG104	0.000	
816	 O4'	21.365	8.428	11.259	O.3	26	LCG104	0.000	
817	 C3'	20.393	8.878	13.273	C.3	26	LCG104	0.000	
818	 O3'	20.539	9.433	14.614	O.3	26	LCG104	0.000	
819	 C2'	19.915	9.868	12.283	C.3	26	LCG104	0.000	
820	 O2'	20.934	10.910	12.322	O.3	26	LCG104	0.000	
821	 C1'	20.109	9.064	11.033	C.3	26	LCG104	0.000	
822	  N1	15.312	8.625	9.867	N.2	26	LCG104	0.000	
823	  C2	16.140	9.771	9.994	C.2	26	LCG104	0.000	
824	  N2	15.703	11.011	9.801	N.pl3	26	LCG104	0.000	
825	  N3	17.425	9.606	10.335	N.2	26	LCG104	0.000	
826	  C4	17.904	8.374	10.551	C.2	26	LCG104	0.000	
827	  C5	17.153	7.281	10.451	C.2	26	LCG104	0.000	
828	  C6	15.880	7.367	10.107	C.2	26	LCG104	0.000	
829	  O6	15.212	6.339	10.031	O.2	26	LCG104	0.000	
830	  N7	17.924	6.231	10.735	N.2	26	LCG104	0.000	
831	  C8	19.149	6.686	11.007	C.2	26	LCG104	0.000	
832	  N9	19.119	8.005	10.882	N.pl3	26	LCG104	0.000	
833	 OP1	24.018	5.167	14.119	O.co2	26	LCG104	0.000	
834	 OP2	22.124	3.992	13.268	O.co2	26	LCG104	0.000	
835	 H01	22.665	10.509	13.558	 H	26	LCG104	0.000	
836	 H02	22.650	8.127	14.248	 H	26	LCG104	0.000	
837	 H03	23.519	7.802	12.612	 H	26	LCG104	0.000	
838	 H04	19.800	7.983	13.463	 H	26	LCG104	0.000	
839	 H05	18.918	10.293	12.402	 H	26	LCG104	0.000	
840	 H06	20.037	9.697	10.149	 H	26	LCG104	0.000	
841	 H07	16.335	11.792	9.909	 H	26	LCG104	0.000	
842	 H08	14.739	11.173	9.547	 H	26	LCG104	0.000	
843	 H09	20.015	6.083	11.281	 H	26	LCG104	0.000	
844	 H23	23.058	10.437	11.912	 H	26	LCG104	0.000	
@<TRIPOS>BOND
1 1 3 1
2 1 21 2
3 1 22 1
4 1 328 1
5 2 3 1
6 2 4 1
7 2 23 1
8 2 24 1
9 4 5 1
10 4 6 1
11 4 25 1
12 5 10 1
13 6 7 1
14 6 8 1
15 6 26 1
16 7 34 1
17 8 9 1
18 8 10 1
19 8 27 1
20 9 28 1
21 10 20 1
22 10 29 1
23 11 12 1
24 11 16 2
25 12 13 2
26 12 30 1
27 13 14 1
28 14 15 2
29 14 20 1
30 15 16 1
31 15 18 1
32 16 17 1
33 17 31 1
34 17 32 1
35 18 19 2
36 19 20 1
37 19 33 1
38 34 36 1
39 34 52 2
40 34 53 1
41 35 36 1
42 35 37 1
43 35 54 1
44 35 64 1
45 37 38 1
46 37 39 1
47 37 55 1
48 38 43 1
49 39 40 1
50 39 41 1
51 39 56 1
52 40 65 1
53 41 42 1
54 41 43 1
55 41 57 1
56 42 58 1
57 43 44 1
58 43 59 1
59 44 45 1
60 44 51 1
61 45 46 2
62 45 47 1
63 47 48 2
64 48 49 1
65 48 50 1
66 49 60 1
67 49 61 1
68 50 51 2
69 50 62 1
70 51 63 1
71 65 67 1
72 65 83 2
73 65 84 1
74 66 67 1
75 66 68 1
76 66 85 1
77 66 94 1
78 68 69 1
79 68 70 1
80 68 86 1
81 69 74 1
82 70 71 1
83 70 72 1
84 70 87 1
85 71 95 1
86 72 73 1
87 72 74 1
88 72 88 1
89 73 89 1
90 74 75 1
91 74 90 1
92 75 76 1
93 75 82 1
94 76 77 2
95 76 78 1
96 78 79 1
97 78 91 1
98 79 80 2
99 79 81 1
100 81 82 2
101 81 92 1
102 82 93 1
103 95 97 1
104 95 113 2
105 95 114 1
106 96 97 1
107 96 98 1
108 96 115 1
109 96 124 1
110 98 99 1
111 98 100 1
112 98 116 1
113 99 104 1
114 100 101 1
115 100 102 1
116 100 117 1
117 101 125 1
118 102 103 1
119 102 104 1
120 102 118 1
121 103 119 1
122 104 105 1
123 104 120 1
124 105 106 1
125 105 112 1
126 106 107 2
127 106 108 1
128 108 109 1
129 108 121 1
130 109 110 2
131 109 111 1
132 111 112 2
133 111 122 1
134 112 123 1
135 125 127 1
136 125 145 2
137 125 146 1
138 126 127 1
139 126 128 1
140 126 147 1
141 126 156 1
142 128 129 1
143 128 130 1
144 128 148 1
145 129 134 1
146 130 131 1
147 130 132 1
148 130 149 1
149 131 158 1
150 132 133 1
151 132 134 1
152 132 150 1
153 133 151 1
154 134 144 1
155 134 152 1
156 135 136 1
157 135 140 2
158 136 137 2
159 136 153 1
160 137 138 1
161 138 139 2
162 138 144 1
163 139 140 1
164 139 142 1
165 140 141 1
166 141 154 1
167 141 155 1
168 142 143 2
169 143 144 1
170 143 157 1
171 158 160 1
172 158 178 2
173 158 179 1
174 159 160 1
175 159 161 1
176 159 180 1
177 159 190 1
178 161 162 1
179 161 163 1
180 161 181 1
181 162 167 1
182 163 164 1
183 163 165 1
184 163 182 1
185 164 191 1
186 165 166 1
187 165 167 1
188 165 183 1
189 166 184 1
190 167 177 1
191 167 185 1
192 168 169 1
193 168 173 2
194 169 170 2
195 169 186 1
196 170 171 1
197 171 172 2
198 171 177 1
199 172 173 1
200 172 175 1
201 173 174 1
202 174 187 1
203 174 188 1
204 175 176 2
205 176 177 1
206 176 189 1
207 191 193 1
208 191 212 2
209 191 213 1
210 192 193 1
211 192 194 1
212 192 214 1
213 192 224 1
214 194 195 1
215 194 196 1
216 194 215 1
217 195 200 1
218 196 197 1
219 196 198 1
220 196 216 1
221 197 225 1
222 198 199 1
223 198 200 1
224 198 217 1
225 199 218 1
226 200 211 1
227 200 219 1
228 201 202 1
229 201 207 1
230 201 220 1
231 202 203 1
232 202 204 2
233 203 221 1
234 203 222 1
235 204 205 1
236 205 206 2
237 205 211 1
238 206 207 1
239 206 209 1
240 207 208 2
241 209 210 2
242 210 211 1
243 210 223 1
244 225 227 1
245 225 243 2
246 225 244 1
247 226 227 1
248 226 228 1
249 226 245 1
250 226 254 1
251 228 229 1
252 228 230 1
253 228 246 1
254 229 234 1
255 230 231 1
256 230 232 1
257 230 247 1
258 231 255 1
259 232 233 1
260 232 234 1
261 232 248 1
262 233 249 1
263 234 235 1
264 234 250 1
265 235 236 1
266 235 242 1
267 236 237 2
268 236 238 1
269 238 239 1
270 238 251 1
271 239 240 2
272 239 241 1
273 241 242 2
274 241 252 1
275 242 253 1
276 255 257 1
277 255 273 2
278 255 274 1
279 256 257 1
280 256 258 1
281 256 275 1
282 256 284 1
283 258 259 1
284 258 260 1
285 258 276 1
286 259 264 1
287 260 261 1
288 260 262 1
289 260 277 1
290 262 263 1
291 262 264 1
292 262 278 1
293 263 279 1
294 264 265 1
295 264 280 1
296 265 266 1
297 265 272 1
298 266 267 2
299 266 268 1
300 268 269 2
301 269 270 1
302 269 271 1
303 270 281 1
304 270 282 1
305 271 272 2
306 271 283 1
307 272 285 1
308 286 287 1
309 286 288 2
310 286 291 1
311 286 785 1
312 289 292 1
313 289 297 1
314 289 308 1
315 289 319 1
316 290 291 1
317 290 292 1
318 290 309 1
319 290 310 1
320 292 293 1
321 292 294 1
322 293 298 1
323 294 295 1
324 294 296 1
325 294 311 1
326 295 321 1
327 296 297 1
328 296 298 1
329 296 312 1
330 298 299 1
331 298 313 1
332 299 300 ar
333 299 307 ar
334 300 301 2
335 300 302 ar
336 302 303 ar
337 303 304 1
338 303 305 ar
339 304 314 1
340 304 315 1
341 305 306 1
342 305 307 ar
343 306 316 1
344 306 317 1
345 306 318 1
346 307 320 1
347 321 324 1
348 321 343 1
349 321 344 2
350 322 325 1
351 322 330 1
352 322 345 1
353 322 354 1
354 323 324 1
355 323 325 1
356 323 346 1
357 323 347 1
358 325 326 1
359 325 327 1
360 326 331 1
361 327 328 1
362 327 329 1
363 327 348 1
364 329 330 1
365 329 331 1
366 329 349 1
367 331 342 1
368 331 350 1
369 332 333 ar
370 332 338 ar
371 333 334 1
372 333 335 ar
373 334 351 1
374 334 352 1
375 335 336 ar
376 336 337 ar
377 336 342 ar
378 337 338 ar
379 337 340 ar
380 338 339 2
381 340 341 ar
382 341 342 ar
383 341 353 1
384 355 358 1
385 355 363 1
386 355 374 1
387 355 382 1
388 356 357 1
389 356 358 1
390 356 375 1
391 356 376 1
392 357 377 1
393 358 359 1
394 358 360 1
395 359 364 1
396 360 361 1
397 360 362 1
398 360 378 1
399 361 388 1
400 362 363 1
401 362 364 1
402 362 379 1
403 364 365 1
404 364 380 1
405 365 366 ar
406 365 373 ar
407 366 367 2
408 366 368 ar
409 368 369 ar
410 369 370 1
411 369 371 ar
412 370 381 1
413 370 383 1
414 371 372 1
415 371 373 ar
416 372 384 1
417 372 385 1
418 372 386 1
419 373 387 1
420 388 389 1
421 388 390 2
422 388 393 1
423 391 394 1
424 391 399 1
425 391 410 1
426 391 422 1
427 392 393 1
428 392 394 1
429 392 411 1
430 392 412 1
431 394 395 1
432 394 396 1
433 395 400 1
434 396 397 1
435 396 398 1
436 396 413 1
437 397 423 1
438 398 399 1
439 398 400 1
440 398 414 1
441 400 401 1
442 400 415 1
443 401 402 ar
444 401 409 ar
445 402 403 2
446 402 404 ar
447 404 405 ar
448 405 406 1
449 405 407 ar
450 406 416 1
451 406 417 1
452 407 408 1
453 407 409 ar
454 408 418 1
455 408 419 1
456 408 420 1
457 409 421 1
458 423 424 1
459 423 425 2
460 423 428 1
461 426 429 1
462 426 434 1
463 426 445 1
464 426 457 1
465 427 428 1
466 427 429 1
467 427 446 1
468 427 447 1
469 429 430 1
470 429 431 1
471 430 435 1
472 431 432 1
473 431 433 1
474 431 448 1
475 432 811 1
476 433 434 1
477 433 435 1
478 433 449 1
479 435 436 1
480 435 450 1
481 436 437 ar
482 436 444 ar
483 437 438 2
484 437 439 ar
485 439 440 ar
486 440 441 1
487 440 442 ar
488 441 451 1
489 441 452 1
490 442 443 1
491 442 444 ar
492 443 453 1
493 443 454 1
494 443 455 1
495 444 456 1
496 458 460 1
497 458 478 2
498 458 479 1
499 458 818 1
500 459 460 1
501 459 461 1
502 459 480 1
503 459 490 1
504 461 462 1
505 461 463 1
506 461 481 1
507 462 467 1
508 463 464 1
509 463 465 1
510 463 482 1
511 464 491 1
512 465 466 1
513 465 467 1
514 465 483 1
515 466 484 1
516 467 477 1
517 467 485 1
518 468 469 1
519 468 473 2
520 469 470 2
521 469 486 1
522 470 471 1
523 471 472 2
524 471 477 1
525 472 473 1
526 472 475 1
527 473 474 1
528 474 487 1
529 474 488 1
530 475 476 2
531 476 477 1
532 476 489 1
533 491 493 1
534 491 509 2
535 491 510 1
536 492 493 1
537 492 494 1
538 492 511 1
539 492 521 1
540 494 495 1
541 494 496 1
542 494 512 1
543 495 500 1
544 496 497 1
545 496 498 1
546 496 513 1
547 497 522 1
548 498 499 1
549 498 500 1
550 498 514 1
551 499 515 1
552 500 501 1
553 500 516 1
554 501 502 1
555 501 508 1
556 502 503 2
557 502 504 1
558 504 505 2
559 505 506 1
560 505 507 1
561 506 517 1
562 506 518 1
563 507 508 2
564 507 519 1
565 508 520 1
566 522 524 1
567 522 540 2
568 522 541 1
569 523 524 1
570 523 525 1
571 523 542 1
572 523 551 1
573 525 526 1
574 525 527 1
575 525 543 1
576 526 531 1
577 527 528 1
578 527 529 1
579 527 544 1
580 528 552 1
581 529 530 1
582 529 531 1
583 529 545 1
584 530 546 1
585 531 532 1
586 531 547 1
587 532 533 1
588 532 539 1
589 533 534 2
590 533 535 1
591 535 536 1
592 535 548 1
593 536 537 2
594 536 538 1
595 538 539 2
596 538 549 1
597 539 550 1
598 552 554 1
599 552 570 2
600 552 571 1
601 553 554 1
602 553 555 1
603 553 572 1
604 553 581 1
605 555 556 1
606 555 557 1
607 555 573 1
608 556 561 1
609 557 558 1
610 557 559 1
611 557 574 1
612 558 582 1
613 559 560 1
614 559 561 1
615 559 575 1
616 560 576 1
617 561 562 1
618 561 577 1
619 562 563 1
620 562 569 1
621 563 564 2
622 563 565 1
623 565 566 1
624 565 578 1
625 566 567 2
626 566 568 1
627 568 569 2
628 568 579 1
629 569 580 1
630 582 584 1
631 582 602 2
632 582 603 1
633 583 584 1
634 583 585 1
635 583 604 1
636 583 613 1
637 585 586 1
638 585 587 1
639 585 605 1
640 586 591 1
641 587 588 1
642 587 589 1
643 587 606 1
644 588 615 1
645 589 590 1
646 589 591 1
647 589 607 1
648 590 608 1
649 591 601 1
650 591 609 1
651 592 593 1
652 592 597 2
653 593 594 2
654 593 610 1
655 594 595 1
656 595 596 2
657 595 601 1
658 596 597 1
659 596 599 1
660 597 598 1
661 598 611 1
662 598 612 1
663 599 600 2
664 600 601 1
665 600 614 1
666 615 617 1
667 615 635 2
668 615 636 1
669 616 617 1
670 616 618 1
671 616 637 1
672 616 647 1
673 618 619 1
674 618 620 1
675 618 638 1
676 619 624 1
677 620 621 1
678 620 622 1
679 620 639 1
680 621 648 1
681 622 623 1
682 622 624 1
683 622 640 1
684 623 641 1
685 624 634 1
686 624 642 1
687 625 626 1
688 625 630 2
689 626 627 2
690 626 643 1
691 627 628 1
692 628 629 2
693 628 634 1
694 629 630 1
695 629 632 1
696 630 631 1
697 631 644 1
698 631 645 1
699 632 633 2
700 633 634 1
701 633 646 1
702 648 650 1
703 648 669 2
704 648 670 1
705 649 650 1
706 649 651 1
707 649 671 1
708 649 681 1
709 651 652 1
710 651 653 1
711 651 672 1
712 652 657 1
713 653 654 1
714 653 655 1
715 653 673 1
716 654 682 1
717 655 656 1
718 655 657 1
719 655 674 1
720 656 675 1
721 657 668 1
722 657 676 1
723 658 659 1
724 658 664 1
725 658 677 1
726 659 660 1
727 659 661 2
728 660 678 1
729 660 679 1
730 661 662 1
731 662 663 2
732 662 668 1
733 663 664 1
734 663 666 1
735 664 665 2
736 666 667 2
737 667 668 1
738 667 680 1
739 682 684 1
740 682 700 2
741 682 701 1
742 683 684 1
743 683 685 1
744 683 702 1
745 683 711 1
746 685 686 1
747 685 687 1
748 685 703 1
749 686 691 1
750 687 688 1
751 687 689 1
752 687 704 1
753 688 712 1
754 689 690 1
755 689 691 1
756 689 705 1
757 690 706 1
758 691 692 1
759 691 707 1
760 692 693 1
761 692 699 1
762 693 694 2
763 693 695 1
764 695 696 1
765 695 708 1
766 696 697 2
767 696 698 1
768 698 699 2
769 698 709 1
770 699 710 1
771 712 714 1
772 712 730 2
773 712 731 1
774 713 714 1
775 713 715 1
776 713 732 1
777 713 741 1
778 715 716 1
779 715 717 1
780 715 733 1
781 716 721 1
782 717 718 1
783 717 719 1
784 717 734 1
785 719 720 1
786 719 721 1
787 719 735 1
788 720 736 1
789 721 722 1
790 721 737 1
791 722 723 1
792 722 729 1
793 723 724 2
794 723 725 1
795 725 726 2
796 726 727 1
797 726 728 1
798 727 738 1
799 727 739 1
800 728 729 2
801 728 740 1
802 729 742 1
803 743 746 1
804 743 751 1
805 743 762 1
806 743 773 1
807 744 745 1
808 744 746 1
809 744 763 1
810 744 764 1
811 745 765 1
812 746 747 1
813 746 748 1
814 747 752 1
815 748 749 1
816 748 750 1
817 748 766 1
818 749 776 1
819 750 751 1
820 750 752 1
821 750 767 1
822 752 753 1
823 752 768 1
824 753 754 ar
825 753 761 ar
826 754 755 2
827 754 756 ar
828 756 757 ar
829 757 758 1
830 757 759 ar
831 758 769 1
832 758 770 1
833 759 760 1
834 759 761 ar
835 760 771 1
836 760 772 1
837 760 774 1
838 761 775 1
839 776 777 1
840 776 778 2
841 776 781 1
842 779 782 1
843 779 787 1
844 779 798 1
845 779 810 1
846 780 781 1
847 780 782 1
848 780 799 1
849 780 800 1
850 782 783 1
851 782 784 1
852 783 788 1
853 784 785 1
854 784 786 1
855 784 801 1
856 786 787 1
857 786 788 1
858 786 802 1
859 788 789 1
860 788 803 1
861 789 790 ar
862 789 797 ar
863 790 791 2
864 790 792 ar
865 792 793 ar
866 793 794 1
867 793 795 ar
868 794 804 1
869 794 805 1
870 795 796 1
871 795 797 ar
872 796 806 1
873 796 807 1
874 796 808 1
875 797 809 1
876 811 814 1
877 811 833 1
878 811 834 2
879 812 815 1
880 812 820 1
881 812 835 1
882 812 844 1
883 813 814 1
884 813 815 1
885 813 836 1
886 813 837 1
887 815 816 1
888 815 817 1
889 816 821 1
890 817 818 1
891 817 819 1
892 817 838 1
893 819 820 1
894 819 821 1
895 819 839 1
896 821 832 1
897 821 840 1
898 822 823 ar
899 822 828 ar
900 823 824 1
901 823 825 ar
902 824 841 1
903 824 842 1
904 825 826 ar
905 826 827 ar
906 826 832 ar
907 827 828 ar
908 827 830 ar
909 828 829 2
910 830 831 ar
911 831 832 ar
912 831 843 1
@<TRIPOS>SUBSTRUCTURE
1	A5	1	RESIDUE	1 A	A
2	C6	34	RESIDUE	1 A	C
3	U7	65	RESIDUE	1 A	U
4	U8	95	RESIDUE	1 A	U
5	A9	125	RESIDUE	1 A	A
6	A10	158	RESIDUE	1 A	A
7	G11	191	RESIDUE	1 A	G
8	U12	225	RESIDUE	1 A	U
9	C13	255	RESIDUE	1 A	C
10	LCC101	286	RESIDUE	1 A	LCC
11	LCG102	321	RESIDUE	1 A	LCG
12	LKC104	355	RESIDUE	1 A	LKC
13	LCC105	388	RESIDUE	1 A	LCC
14	LCC106	423	RESIDUE	1 A	LCC
15	A5	458	RESIDUE	1 B	A
16	C6	491	RESIDUE	1 B	C
17	U7	522	RESIDUE	1 B	U
18	U8	552	RESIDUE	1 B	U
19	A9	582	RESIDUE	1 B	A
20	A10	615	RESIDUE	1 B	A
21	G11	648	RESIDUE	1 B	G
22	U12	682	RESIDUE	1 B	U
23	C13	712	RESIDUE	1 B	C
24	LKC101	743	RESIDUE	1 B	LKC
25	LCC102	776	RESIDUE	1 B	LCC
26	LCG104	811	RESIDUE	1 B	LCG
