7lng_h
     RDKit          3D

 24 26  0  0  0  0  0  0  0  0999 V2000
   17.4881    5.7718    4.8007 P   0  0  1  0  0  0  0  0  0  0  0  0
   16.9318    4.8565    3.7749 O   0  0  0  0  0  0  0  0  0  0  0  0
   18.9220    6.1581    4.7866 O   0  0  0  0  0  0  0  0  0  0  0  0
   14.6449    6.3241    5.7863 C   0  0  0  0  0  0  0  0  0  0  0  0
   14.9761    7.0351    6.9852 O   0  0  0  0  0  0  0  0  0  0  0  0
   15.2227    7.2711    4.7413 C   0  0  2  0  0  0  0  0  0  0  0  0
   16.6813    7.1767    4.7749 O   0  0  0  0  0  0  0  0  0  0  0  0
   14.8371    8.6381    5.2120 C   0  0  1  0  0  0  0  0  0  0  0  0
   13.4608    9.0035    4.8946 O   0  0  0  0  0  0  0  0  0  0  0  0
   15.0336    8.4696    6.7121 C   0  0  2  0  0  0  0  0  0  0  0  0
   16.8298   13.1538    7.4060 N   0  0  0  0  0  0  0  0  0  0  0  0
   15.5244   12.7005    7.0835 C   0  0  0  0  0  0  0  0  0  0  0  0
   14.5198   13.5704    6.9022 N   0  0  0  0  0  0  0  0  0  0  0  0
   15.3136   11.3709    6.9616 N   0  0  0  0  0  0  0  0  0  0  0  0
   16.3270   10.5017    7.1417 C   0  0  0  0  0  0  0  0  0  0  0  0
   17.5810   10.8982    7.4606 C   0  0  0  0  0  0  0  0  0  0  0  0
   17.8661   12.1994    7.5938 C   0  0  0  0  0  0  0  0  0  0  0  0
   19.0083   12.5833    7.8816 O   0  0  0  0  0  0  0  0  0  0  0  0
   18.3440    9.8070    7.5652 N   0  0  0  0  0  0  0  0  0  0  0  0
   17.5775    8.7479    7.3267 C   0  0  0  0  0  0  0  0  0  0  0  0
   16.3207    9.1754    7.0763 N   0  0  0  0  0  0  0  0  0  0  0  0
   13.2833    9.8913    5.2141 H   0  0  0  0  0  0  0  0  0  0  0  0
   14.1044   13.6789    5.9881 H   0  0  0  0  0  0  0  0  0  0  0  0
   14.1788   14.1168    7.6801 H   0  0  0  0  0  0  0  0  0  0  0  0
  1  2  1  6
  1  3  2  0
  1  7  1  0
  4  5  1  0
  4  6  1  0
  5 10  1  0
  6  7  1  1
  6  8  1  0
  8  9  1  1
  8 10  1  0
  9 22  1  0
 10 21  1  6
 11 12  1  0
 11 17  1  0
 12 13  1  0
 12 14  2  0
 13 23  1  0
 13 24  1  0
 14 15  1  0
 15 16  2  0
 15 21  1  0
 16 17  1  0
 16 19  1  0
 17 18  2  0
 19 20  2  0
 20 21  1  0
M  CHG  1   2  -1
M  END
>  <CHROM.0>  (1) 
-61.50580747

>  <CHROM.1>  (1) 
46.80406706,46.86060447,-179.35666101,-164.68757703,113.23992667,16.39469503
9.04466533,6.18865928,-1.55852722,-0.17052902,0.38430112

>  <Name>  (1) 
7lng_h

>  <RI>  (1) 
8.5107e+06

>  <Rbt.Current_Directory>  (1) 
/home/jta30/NA_complexes/7lng

>  <Rbt.Executable>  (1) 
rbdock ($Id: //depot/dev/client3/rdock/2013.1/src/exe/rbdock.cxx#4 $)

>  <Rbt.Library>  (1) 
libRbt.so (2013.1, Build901 2013/11/27)

>  <Rbt.Parameter_File>  (1) 
/software/dev_tools/swtree/cs400_centos7.2_pe2016-08/rdock/2013.1/centos7.2_conda/build/data/scripts/dock.prm

>  <Rbt.Receptor>  (1) 
7lng.prm

>  <SCORE>  (1) 
-20.4806

>  <SCORE.INTER>  (1) 
-16.6926

>  <SCORE.INTER.CONST>  (1) 
1

>  <SCORE.INTER.POLAR>  (1) 
-2.09151

>  <SCORE.INTER.REPUL>  (1) 
0

>  <SCORE.INTER.ROT>  (1) 
4

>  <SCORE.INTER.VDW>  (1) 
-18.9814

>  <SCORE.INTER.norm>  (1) 
-0.794884

>  <SCORE.INTRA>  (1) 
-3.76235

>  <SCORE.INTRA.DIHEDRAL>  (1) 
-7.45227

>  <SCORE.INTRA.DIHEDRAL.0>  (1) 
10.6104

>  <SCORE.INTRA.POLAR>  (1) 
0

>  <SCORE.INTRA.POLAR.0>  (1) 
0

>  <SCORE.INTRA.REPUL>  (1) 
0

>  <SCORE.INTRA.REPUL.0>  (1) 
0

>  <SCORE.INTRA.VDW>  (1) 
-0.0362132

>  <SCORE.INTRA.VDW.0>  (1) 
-1.96818

>  <SCORE.INTRA.norm>  (1) 
-0.179159

>  <SCORE.RESTR>  (1) 
0

>  <SCORE.RESTR.CAVITY>  (1) 
0

>  <SCORE.RESTR.norm>  (1) 
0

>  <SCORE.SYSTEM>  (1) 
-0.0257013

>  <SCORE.SYSTEM.CONST>  (1) 
0

>  <SCORE.SYSTEM.DIHEDRAL>  (1) 
0.280057

>  <SCORE.SYSTEM.VDW>  (1) 
-0.16573

>  <SCORE.SYSTEM.norm>  (1) 
-0.00122387

>  <SCORE.heavy>  (1) 
21

>  <SCORE.norm>  (1) 
-0.975267

>  <Predicted_Rank>  (1) 
1.0

$$$$
7lng_h
     RDKit          3D

 24 26  0  0  0  0  0  0  0  0999 V2000
   13.3299   11.9413    2.9866 P   0  0  1  0  0  0  0  0  0  0  0  0
   14.5352   11.0770    2.9950 O   0  0  0  0  0  0  0  0  0  0  0  0
   11.9663   11.3555    3.0413 O   0  0  0  0  0  0  0  0  0  0  0  0
   14.1802   14.7369    5.7030 C   0  0  0  0  0  0  0  0  0  0  0  0
   14.3912   13.7546    6.7243 O   0  0  0  0  0  0  0  0  0  0  0  0
   14.4877   13.9076    4.4618 C   0  0  2  0  0  0  0  0  0  0  0  0
   13.3875   12.9717    4.2357 O   0  0  0  0  0  0  0  0  0  0  0  0
   15.7025   13.1136    4.8262 C   0  0  1  0  0  0  0  0  0  0  0  0
   16.9488   13.8656    4.7273 O   0  0  0  0  0  0  0  0  0  0  0  0
   15.3747   12.7724    6.2731 C   0  0  2  0  0  0  0  0  0  0  0  0
   17.2208    8.1996    7.4268 N   0  0  0  0  0  0  0  0  0  0  0  0
   17.8158    9.4855    7.5045 C   0  0  0  0  0  0  0  0  0  0  0  0
   19.0772    9.6344    7.9352 N   0  0  0  0  0  0  0  0  0  0  0  0
   17.0840   10.5598    7.1338 N   0  0  0  0  0  0  0  0  0  0  0  0
   15.8185   10.4041    6.6988 C   0  0  0  0  0  0  0  0  0  0  0  0
   15.2163    9.1947    6.6225 C   0  0  0  0  0  0  0  0  0  0  0  0
   15.8803    8.0849    6.9686 C   0  0  0  0  0  0  0  0  0  0  0  0
   15.3484    6.9679    6.9025 O   0  0  0  0  0  0  0  0  0  0  0  0
   13.9786    9.3794    6.1558 N   0  0  0  0  0  0  0  0  0  0  0  0
   13.8078   10.6819    5.9549 C   0  0  0  0  0  0  0  0  0  0  0  0
   14.9446   11.3227    6.3039 N   0  0  0  0  0  0  0  0  0  0  0  0
   17.0712   14.1652    3.8234 H   0  0  0  0  0  0  0  0  0  0  0  0
   19.3955   10.5344    8.2649 H   0  0  0  0  0  0  0  0  0  0  0  0
   19.7087    8.8462    7.9299 H   0  0  0  0  0  0  0  0  0  0  0  0
  1  2  1  1
  1  3  2  0
  1  7  1  0
  4  5  1  0
  4  6  1  0
  5 10  1  0
  6  7  1  1
  6  8  1  0
  8  9  1  1
  8 10  1  0
  9 22  1  0
 10 21  1  6
 11 12  1  0
 11 17  1  0
 12 13  1  0
 12 14  2  0
 13 23  1  0
 13 24  1  0
 14 15  1  0
 15 16  2  0
 15 21  1  0
 16 17  1  0
 16 19  1  0
 17 18  2  0
 19 20  2  0
 20 21  1  0
M  CHG  1   2  -1
M  END
>  <CHROM.0>  (2) 
-59.38880432

>  <CHROM.1>  (2) 
57.10488531,178.45760176,-60.41454928,-140.02209379,-160.57130284,15.14515283
11.21037139,5.58247526,2.27561984,-0.66409422,-0.19168802

>  <Name>  (2) 
7lng_h

>  <RI>  (2) 
8.5107e+06

>  <Rbt.Current_Directory>  (2) 
/home/jta30/NA_complexes/7lng

>  <Rbt.Executable>  (2) 
rbdock ($Id: //depot/dev/client3/rdock/2013.1/src/exe/rbdock.cxx#4 $)

>  <Rbt.Library>  (2) 
libRbt.so (2013.1, Build901 2013/11/27)

>  <Rbt.Parameter_File>  (2) 
/software/dev_tools/swtree/cs400_centos7.2_pe2016-08/rdock/2013.1/centos7.2_conda/build/data/scripts/dock.prm

>  <Rbt.Receptor>  (2) 
7lng.prm

>  <SCORE>  (2) 
-18.8674

>  <SCORE.INTER>  (2) 
-13.5264

>  <SCORE.INTER.CONST>  (2) 
1

>  <SCORE.INTER.POLAR>  (2) 
-1.85359

>  <SCORE.INTER.REPUL>  (2) 
0.00225906

>  <SCORE.INTER.ROT>  (2) 
4

>  <SCORE.INTER.VDW>  (2) 
-16.6354

>  <SCORE.INTER.norm>  (2) 
-0.644113

>  <SCORE.INTRA>  (2) 
-5.32593

>  <SCORE.INTRA.DIHEDRAL>  (2) 
-8.28108

>  <SCORE.INTRA.DIHEDRAL.0>  (2) 
10.6104

>  <SCORE.INTRA.POLAR>  (2) 
0

>  <SCORE.INTRA.POLAR.0>  (2) 
0

>  <SCORE.INTRA.REPUL>  (2) 
0

>  <SCORE.INTRA.REPUL.0>  (2) 
0

>  <SCORE.INTRA.VDW>  (2) 
-1.18539

>  <SCORE.INTRA.VDW.0>  (2) 
-1.96818

>  <SCORE.INTRA.norm>  (2) 
-0.253616

>  <SCORE.RESTR>  (2) 
0

>  <SCORE.RESTR.CAVITY>  (2) 
0

>  <SCORE.RESTR.norm>  (2) 
0

>  <SCORE.SYSTEM>  (2) 
-0.0151511

>  <SCORE.SYSTEM.CONST>  (2) 
0

>  <SCORE.SYSTEM.DIHEDRAL>  (2) 
0.271416

>  <SCORE.SYSTEM.VDW>  (2) 
-0.150859

>  <SCORE.SYSTEM.norm>  (2) 
-0.000721479

>  <SCORE.heavy>  (2) 
21

>  <SCORE.norm>  (2) 
-0.89845

>  <Predicted_Rank>  (2) 
2.0

$$$$
7lng_h
     RDKit          3D

 24 26  0  0  0  0  0  0  0  0999 V2000
   11.9208   10.1337    4.7782 P   0  0  1  0  0  0  0  0  0  0  0  0
   12.3855   10.6921    3.4852 O   0  0  0  0  0  0  0  0  0  0  0  0
   11.0411    8.9381    4.8250 O   0  0  0  0  0  0  0  0  0  0  0  0
   14.4991    8.2745    4.2648 C   0  0  0  0  0  0  0  0  0  0  0  0
   15.5986    9.1863    4.3763 O   0  0  0  0  0  0  0  0  0  0  0  0
   13.8660    8.4439    5.6407 C   0  0  2  0  0  0  0  0  0  0  0  0
   13.1981    9.7433    5.6956 O   0  0  0  0  0  0  0  0  0  0  0  0
   15.0223    8.4783    6.5899 C   0  0  1  0  0  0  0  0  0  0  0  0
   15.5578    7.1602    6.9131 O   0  0  0  0  0  0  0  0  0  0  0  0
   16.0144    9.2943    5.7732 C   0  0  2  0  0  0  0  0  0  0  0  0
   19.0057   12.2602    8.5849 N   0  0  0  0  0  0  0  0  0  0  0  0
   19.2000   10.9402    8.1017 C   0  0  0  0  0  0  0  0  0  0  0  0
   20.3247   10.2647    8.3804 N   0  0  0  0  0  0  0  0  0  0  0  0
   18.2258   10.3756    7.3538 N   0  0  0  0  0  0  0  0  0  0  0  0
   17.0968   11.0574    7.0796 C   0  0  0  0  0  0  0  0  0  0  0  0
   16.8830   12.3210    7.5145 C   0  0  0  0  0  0  0  0  0  0  0  0
   17.8013   12.9432    8.2640 C   0  0  0  0  0  0  0  0  0  0  0  0
   17.6233   14.0982    8.6753 O   0  0  0  0  0  0  0  0  0  0  0  0
   15.6809   12.7084    7.0801 N   0  0  0  0  0  0  0  0  0  0  0  0
   15.1586   11.7086    6.3774 C   0  0  0  0  0  0  0  0  0  0  0  0
   16.0415   10.6863    6.3640 N   0  0  0  0  0  0  0  0  0  0  0  0
   15.9582    6.7762    6.1295 H   0  0  0  0  0  0  0  0  0  0  0  0
   20.3906    9.2810    8.1613 H   0  0  0  0  0  0  0  0  0  0  0  0
   21.1057   10.7401    8.8094 H   0  0  0  0  0  0  0  0  0  0  0  0
  1  2  1  6
  1  3  2  0
  1  7  1  0
  4  5  1  0
  4  6  1  0
  5 10  1  0
  6  7  1  6
  6  8  1  0
  8  9  1  6
  8 10  1  0
  9 22  1  0
 10 21  1  1
 11 12  1  0
 11 17  1  0
 12 13  1  0
 12 14  2  0
 13 23  1  0
 13 24  1  0
 14 15  1  0
 15 16  2  0
 15 21  1  0
 16 17  1  0
 16 19  1  0
 17 18  2  0
 19 20  2  0
 20 21  1  0
M  CHG  1   2  -1
M  END
>  <CHROM.0>  (3) 
-60.04152228

>  <CHROM.1>  (3) 
-87.96703868,64.84426234,66.83980866,-134.19803486,170.10726662,15.54013667
10.38466964,6.34295200,2.68506235,0.43774753,-2.91246631

>  <Name>  (3) 
7lng_h

>  <RI>  (3) 
8.5107e+06

>  <Rbt.Current_Directory>  (3) 
/home/jta30/NA_complexes/7lng

>  <Rbt.Executable>  (3) 
rbdock ($Id: //depot/dev/client3/rdock/2013.1/src/exe/rbdock.cxx#4 $)

>  <Rbt.Library>  (3) 
libRbt.so (2013.1, Build901 2013/11/27)

>  <Rbt.Parameter_File>  (3) 
/software/dev_tools/swtree/cs400_centos7.2_pe2016-08/rdock/2013.1/centos7.2_conda/build/data/scripts/dock.prm

>  <Rbt.Receptor>  (3) 
7lng.prm

>  <SCORE>  (3) 
-16.3931

>  <SCORE.INTER>  (3) 
-12.5868

>  <SCORE.INTER.CONST>  (3) 
1

>  <SCORE.INTER.POLAR>  (3) 
-1.85359

>  <SCORE.INTER.REPUL>  (3) 
0.119963

>  <SCORE.INTER.ROT>  (3) 
4

>  <SCORE.INTER.VDW>  (3) 
-16.2844

>  <SCORE.INTER.norm>  (3) 
-0.599372

>  <SCORE.INTRA>  (3) 
-3.79313

>  <SCORE.INTRA.DIHEDRAL>  (3) 
-7.49321

>  <SCORE.INTRA.DIHEDRAL.0>  (3) 
10.6104

>  <SCORE.INTRA.POLAR>  (3) 
0

>  <SCORE.INTRA.POLAR.0>  (3) 
0

>  <SCORE.INTRA.REPUL>  (3) 
0

>  <SCORE.INTRA.REPUL.0>  (3) 
0

>  <SCORE.INTRA.VDW>  (3) 
-0.0465278

>  <SCORE.INTRA.VDW.0>  (3) 
-1.96818

>  <SCORE.INTRA.norm>  (3) 
-0.180625

>  <SCORE.RESTR>  (3) 
0.00757277

>  <SCORE.RESTR.CAVITY>  (3) 
0.00757277

>  <SCORE.RESTR.norm>  (3) 
0.000360608

>  <SCORE.SYSTEM>  (3) 
-0.0207453

>  <SCORE.SYSTEM.CONST>  (3) 
0

>  <SCORE.SYSTEM.DIHEDRAL>  (3) 
0.269719

>  <SCORE.SYSTEM.VDW>  (3) 
-0.155605

>  <SCORE.SYSTEM.norm>  (3) 
-0.00098787

>  <SCORE.heavy>  (3) 
21

>  <SCORE.norm>  (3) 
-0.780625

>  <Predicted_Rank>  (3) 
3.0

$$$$
7lng_h
     RDKit          3D

 24 26  0  0  0  0  0  0  0  0999 V2000
   13.2741   11.9278    2.9541 P   0  0  1  0  0  0  0  0  0  0  0  0
   14.4610   11.0384    2.9547 O   0  0  0  0  0  0  0  0  0  0  0  0
   11.8988   11.3707    3.0146 O   0  0  0  0  0  0  0  0  0  0  0  0
   14.1713   14.7348    5.6429 C   0  0  0  0  0  0  0  0  0  0  0  0
   14.3882   13.7645    6.6744 O   0  0  0  0  0  0  0  0  0  0  0  0
   14.4649   13.8892    4.4094 C   0  0  2  0  0  0  0  0  0  0  0  0
   13.3597   12.9543    4.2048 O   0  0  0  0  0  0  0  0  0  0  0  0
   15.6803   13.0956    4.7727 C   0  0  1  0  0  0  0  0  0  0  0  0
   16.9281   13.8421    4.6534 O   0  0  0  0  0  0  0  0  0  0  0  0
   15.3644   12.7734    6.2265 C   0  0  2  0  0  0  0  0  0  0  0  0
   17.2007    8.2110    7.4357 N   0  0  0  0  0  0  0  0  0  0  0  0
   17.8002    9.4959    7.4931 C   0  0  0  0  0  0  0  0  0  0  0  0
   19.0638    9.6467    7.9165 N   0  0  0  0  0  0  0  0  0  0  0  0
   17.0703   10.5674    7.1106 N   0  0  0  0  0  0  0  0  0  0  0  0
   15.8025   10.4098    6.6831 C   0  0  0  0  0  0  0  0  0  0  0  0
   15.1961    9.2014    6.6260 C   0  0  0  0  0  0  0  0  0  0  0  0
   15.8580    8.0944    6.9847 C   0  0  0  0  0  0  0  0  0  0  0  0
   15.3223    6.9783    6.9361 O   0  0  0  0  0  0  0  0  0  0  0  0
   13.9570    9.3837    6.1619 N   0  0  0  0  0  0  0  0  0  0  0  0
   13.7895   10.6839    5.9438 C   0  0  0  0  0  0  0  0  0  0  0  0
   14.9298   11.3257    6.2792 N   0  0  0  0  0  0  0  0  0  0  0  0
   17.6643   13.2768    4.8989 H   0  0  0  0  0  0  0  0  0  0  0  0
   19.7511    8.9334    7.7195 H   0  0  0  0  0  0  0  0  0  0  0  0
   19.3279   10.4739    8.4322 H   0  0  0  0  0  0  0  0  0  0  0  0
  1  2  1  1
  1  3  2  0
  1  7  1  0
  4  5  1  0
  4  6  1  0
  5 10  1  0
  6  7  1  1
  6  8  1  0
  8  9  1  1
  8 10  1  0
  9 22  1  0
 10 21  1  6
 11 12  1  0
 11 17  1  0
 12 13  1  0
 12 14  2  0
 13 23  1  0
 13 24  1  0
 14 15  1  0
 15 16  2  0
 15 21  1  0
 16 17  1  0
 16 19  1  0
 17 18  2  0
 19 20  2  0
 20 21  1  0
M  CHG  1   2  -1
M  END
>  <CHROM.0>  (4) 
-59.60948697

>  <CHROM.1>  (4) 
58.64092455,177.28363895,-179.92469011,-139.73564441,34.00321596,15.12026905
11.20549102,5.56091008,2.28275159,-0.65843102,-0.20328363

>  <Name>  (4) 
7lng_h

>  <RI>  (4) 
8.5107e+06

>  <Rbt.Current_Directory>  (4) 
/home/jta30/NA_complexes/7lng

>  <Rbt.Executable>  (4) 
rbdock ($Id: //depot/dev/client3/rdock/2013.1/src/exe/rbdock.cxx#4 $)

>  <Rbt.Library>  (4) 
libRbt.so (2013.1, Build901 2013/11/27)

>  <Rbt.Parameter_File>  (4) 
/software/dev_tools/swtree/cs400_centos7.2_pe2016-08/rdock/2013.1/centos7.2_conda/build/data/scripts/dock.prm

>  <Rbt.Receptor>  (4) 
7lng.prm

>  <SCORE>  (4) 
-18.8851

>  <SCORE.INTER>  (4) 
-13.538

>  <SCORE.INTER.CONST>  (4) 
1

>  <SCORE.INTER.POLAR>  (4) 
-1.85359

>  <SCORE.INTER.REPUL>  (4) 
0

>  <SCORE.INTER.ROT>  (4) 
4

>  <SCORE.INTER.VDW>  (4) 
-16.6358

>  <SCORE.INTER.norm>  (4) 
-0.644667

>  <SCORE.INTRA>  (4) 
-5.32977

>  <SCORE.INTRA.DIHEDRAL>  (4) 
-8.24604

>  <SCORE.INTRA.DIHEDRAL.0>  (4) 
10.6104

>  <SCORE.INTRA.POLAR>  (4) 
0

>  <SCORE.INTRA.POLAR.0>  (4) 
0

>  <SCORE.INTRA.REPUL>  (4) 
0

>  <SCORE.INTRA.REPUL.0>  (4) 
0

>  <SCORE.INTRA.VDW>  (4) 
-1.20675

>  <SCORE.INTRA.VDW.0>  (4) 
-1.96818

>  <SCORE.INTRA.norm>  (4) 
-0.253799

>  <SCORE.RESTR>  (4) 
0

>  <SCORE.RESTR.CAVITY>  (4) 
0

>  <SCORE.RESTR.norm>  (4) 
0

>  <SCORE.SYSTEM>  (4) 
-0.0172763

>  <SCORE.SYSTEM.CONST>  (4) 
0

>  <SCORE.SYSTEM.DIHEDRAL>  (4) 
0.270407

>  <SCORE.SYSTEM.VDW>  (4) 
-0.15248

>  <SCORE.SYSTEM.norm>  (4) 
-0.000822681

>  <SCORE.heavy>  (4) 
21

>  <SCORE.norm>  (4) 
-0.899288

>  <Predicted_Rank>  (4) 
4.0

$$$$
7lng_h
     RDKit          3D

 24 26  0  0  0  0  0  0  0  0999 V2000
   17.4016    5.8732    4.0636 P   0  0  1  0  0  0  0  0  0  0  0  0
   18.5160    5.5434    4.9850 O   0  0  0  0  0  0  0  0  0  0  0  0
   16.3697    4.8632    3.7163 O   0  0  0  0  0  0  0  0  0  0  0  0
   14.6010    6.1561    5.6832 C   0  0  0  0  0  0  0  0  0  0  0  0
   14.9687    6.7923    6.9131 O   0  0  0  0  0  0  0  0  0  0  0  0
   15.1060    7.1887    4.6825 C   0  0  2  0  0  0  0  0  0  0  0  0
   16.5665    7.1340    4.6452 O   0  0  0  0  0  0  0  0  0  0  0  0
   14.7076    8.5085    5.2640 C   0  0  1  0  0  0  0  0  0  0  0  0
   13.3093    8.8552    5.0337 O   0  0  0  0  0  0  0  0  0  0  0  0
   14.9769    8.2432    6.7385 C   0  0  2  0  0  0  0  0  0  0  0  0
   16.7717   12.9454    7.3030 N   0  0  0  0  0  0  0  0  0  0  0  0
   15.4692   12.4833    6.9809 C   0  0  0  0  0  0  0  0  0  0  0  0
   14.4678   13.3479    6.7611 N   0  0  0  0  0  0  0  0  0  0  0  0
   15.2580   11.1507    6.8990 N   0  0  0  0  0  0  0  0  0  0  0  0
   16.2682   10.2867    7.1175 C   0  0  0  0  0  0  0  0  0  0  0  0
   17.5192   10.6918    7.4373 C   0  0  0  0  0  0  0  0  0  0  0  0
   17.8045   11.9964    7.5323 C   0  0  0  0  0  0  0  0  0  0  0  0
   18.9441   12.3881    7.8202 O   0  0  0  0  0  0  0  0  0  0  0  0
   18.2796    9.6039    7.5848 N   0  0  0  0  0  0  0  0  0  0  0  0
   17.5143    8.5384    7.3716 C   0  0  0  0  0  0  0  0  0  0  0  0
   16.2609    8.9590    7.0941 N   0  0  0  0  0  0  0  0  0  0  0  0
   13.1378    8.8843    4.0894 H   0  0  0  0  0  0  0  0  0  0  0  0
   13.9278   13.2897    5.9097 H   0  0  0  0  0  0  0  0  0  0  0  0
   14.2538   14.0573    7.4475 H   0  0  0  0  0  0  0  0  0  0  0  0
  1  2  1  1
  1  3  2  0
  1  7  1  0
  4  5  1  0
  4  6  1  0
  5 10  1  0
  6  7  1  1
  6  8  1  0
  8  9  1  1
  8 10  1  0
  9 22  1  0
 10 21  1  6
 11 12  1  0
 11 17  1  0
 12 13  1  0
 12 14  2  0
 13 23  1  0
 13 24  1  0
 14 15  1  0
 15 16  2  0
 15 21  1  0
 16 17  1  0
 16 19  1  0
 17 18  2  0
 19 20  2  0
 20 21  1  0
M  CHG  1   2  -1
M  END
>  <CHROM.0>  (5) 
-62.19924753

>  <CHROM.1>  (5) 
-135.20058319,67.70769629,-59.13233257,-171.49641116,126.71996422,16.27958233
8.87285199,6.08969925,-1.58959859,-0.18208763,0.40667519

>  <Name>  (5) 
7lng_h

>  <RI>  (5) 
8.5107e+06

>  <Rbt.Current_Directory>  (5) 
/home/jta30/NA_complexes/7lng

>  <Rbt.Executable>  (5) 
rbdock ($Id: //depot/dev/client3/rdock/2013.1/src/exe/rbdock.cxx#4 $)

>  <Rbt.Library>  (5) 
libRbt.so (2013.1, Build901 2013/11/27)

>  <Rbt.Parameter_File>  (5) 
/software/dev_tools/swtree/cs400_centos7.2_pe2016-08/rdock/2013.1/centos7.2_conda/build/data/scripts/dock.prm

>  <Rbt.Receptor>  (5) 
7lng.prm

>  <SCORE>  (5) 
-19.1217

>  <SCORE.INTER>  (5) 
-15.9203

>  <SCORE.INTER.CONST>  (5) 
1

>  <SCORE.INTER.POLAR>  (5) 
-2.0826

>  <SCORE.INTER.REPUL>  (5) 
0.00220706

>  <SCORE.INTER.ROT>  (5) 
4

>  <SCORE.INTER.VDW>  (5) 
-18.2505

>  <SCORE.INTER.norm>  (5) 
-0.75811

>  <SCORE.INTRA>  (5) 
-3.17699

>  <SCORE.INTRA.DIHEDRAL>  (5) 
-6.55445

>  <SCORE.INTRA.DIHEDRAL.0>  (5) 
10.6104

>  <SCORE.INTRA.POLAR>  (5) 
0

>  <SCORE.INTRA.POLAR.0>  (5) 
0

>  <SCORE.INTRA.REPUL>  (5) 
0

>  <SCORE.INTRA.REPUL.0>  (5) 
0

>  <SCORE.INTRA.VDW>  (5) 
0.100232

>  <SCORE.INTRA.VDW.0>  (5) 
-1.96818

>  <SCORE.INTRA.norm>  (5) 
-0.151285

>  <SCORE.RESTR>  (5) 
0

>  <SCORE.RESTR.CAVITY>  (5) 
0

>  <SCORE.RESTR.norm>  (5) 
0

>  <SCORE.SYSTEM>  (5) 
-0.0243952

>  <SCORE.SYSTEM.CONST>  (5) 
0

>  <SCORE.SYSTEM.DIHEDRAL>  (5) 
0.291767

>  <SCORE.SYSTEM.VDW>  (5) 
-0.170279

>  <SCORE.SYSTEM.norm>  (5) 
-0.00116167

>  <SCORE.heavy>  (5) 
21

>  <SCORE.norm>  (5) 
-0.910557

>  <Predicted_Rank>  (5) 
5.0

$$$$
7lng_h
     RDKit          3D

 24 26  0  0  0  0  0  0  0  0999 V2000
   15.5089    6.6324    3.4788 P   0  0  1  0  0  0  0  0  0  0  0  0
   15.7902    5.3374    4.1447 O   0  0  0  0  0  0  0  0  0  0  0  0
   14.1433    6.9680    3.0012 O   0  0  0  0  0  0  0  0  0  0  0  0
   14.7699    7.1822    6.4990 C   0  0  0  0  0  0  0  0  0  0  0  0
   16.0446    7.0585    7.1413 O   0  0  0  0  0  0  0  0  0  0  0  0
   15.0573    8.3366    5.5464 C   0  0  2  0  0  0  0  0  0  0  0  0
   15.9135    7.8531    4.4645 O   0  0  0  0  0  0  0  0  0  0  0  0
   15.8473    9.3131    6.3597 C   0  0  1  0  0  0  0  0  0  0  0  0
   15.0311   10.1415    7.2408 O   0  0  0  0  0  0  0  0  0  0  0  0
   16.7217    8.3535    7.1544 C   0  0  2  0  0  0  0  0  0  0  0  0
   21.1542   10.7290    7.7544 N   0  0  0  0  0  0  0  0  0  0  0  0
   19.9458   10.8221    8.4925 C   0  0  0  0  0  0  0  0  0  0  0  0
   19.8432   11.6513    9.5416 N   0  0  0  0  0  0  0  0  0  0  0  0
   18.8974   10.0568    8.1153 N   0  0  0  0  0  0  0  0  0  0  0  0
   19.0049    9.2280    7.0587 C   0  0  0  0  0  0  0  0  0  0  0  0
   20.1447    9.1059    6.3396 C   0  0  0  0  0  0  0  0  0  0  0  0
   21.2232    9.8352    6.6515 C   0  0  0  0  0  0  0  0  0  0  0  0
   22.2750    9.7410    6.0035 O   0  0  0  0  0  0  0  0  0  0  0  0
   19.9258    8.2155    5.3684 N   0  0  0  0  0  0  0  0  0  0  0  0
   18.6752    7.7816    5.4862 C   0  0  0  0  0  0  0  0  0  0  0  0
   18.1045    8.3989    6.5436 N   0  0  0  0  0  0  0  0  0  0  0  0
   14.7310    9.6166    7.9866 H   0  0  0  0  0  0  0  0  0  0  0  0
   19.1278   12.3640    9.5541 H   0  0  0  0  0  0  0  0  0  0  0  0
   20.4816   11.5627   10.3192 H   0  0  0  0  0  0  0  0  0  0  0  0
  1  2  1  1
  1  3  2  0
  1  7  1  0
  4  5  1  0
  4  6  1  0
  5 10  1  0
  6  7  1  6
  6  8  1  0
  8  9  1  1
  8 10  1  0
  9 22  1  0
 10 21  1  6
 11 12  1  0
 11 17  1  0
 12 13  1  0
 12 14  2  0
 13 23  1  0
 13 24  1  0
 14 15  1  0
 15 16  2  0
 15 21  1  0
 16 17  1  0
 16 19  1  0
 17 18  2  0
 19 20  2  0
 20 21  1  0
M  CHG  1   2  -1
M  END
>  <CHROM.0>  (6) 
-60.82211721

>  <CHROM.1>  (6) 
-81.28038912,58.17336658,74.24179862,-146.75588175,122.50762821,17.59476982
8.56069039,6.12630080,-2.43616908,0.13078341,0.91706488

>  <Name>  (6) 
7lng_h

>  <RI>  (6) 
8.5107e+06

>  <Rbt.Current_Directory>  (6) 
/home/jta30/NA_complexes/7lng

>  <Rbt.Executable>  (6) 
rbdock ($Id: //depot/dev/client3/rdock/2013.1/src/exe/rbdock.cxx#4 $)

>  <Rbt.Library>  (6) 
libRbt.so (2013.1, Build901 2013/11/27)

>  <Rbt.Parameter_File>  (6) 
/software/dev_tools/swtree/cs400_centos7.2_pe2016-08/rdock/2013.1/centos7.2_conda/build/data/scripts/dock.prm

>  <Rbt.Receptor>  (6) 
7lng.prm

>  <SCORE>  (6) 
-18.1448

>  <SCORE.INTER>  (6) 
-14.4895

>  <SCORE.INTER.CONST>  (6) 
1

>  <SCORE.INTER.POLAR>  (6) 
-4.253

>  <SCORE.INTER.REPUL>  (6) 
0.635756

>  <SCORE.INTER.ROT>  (6) 
4

>  <SCORE.INTER.VDW>  (6) 
-12.6081

>  <SCORE.INTER.norm>  (6) 
-0.689977

>  <SCORE.INTRA>  (6) 
-3.69635

>  <SCORE.INTRA.DIHEDRAL>  (6) 
-7.15509

>  <SCORE.INTRA.DIHEDRAL.0>  (6) 
10.6104

>  <SCORE.INTRA.POLAR>  (6) 
0

>  <SCORE.INTRA.POLAR.0>  (6) 
0

>  <SCORE.INTRA.REPUL>  (6) 
0

>  <SCORE.INTRA.REPUL.0>  (6) 
0

>  <SCORE.INTRA.VDW>  (6) 
-0.118804

>  <SCORE.INTRA.VDW.0>  (6) 
-1.96818

>  <SCORE.INTRA.norm>  (6) 
-0.176017

>  <SCORE.RESTR>  (6) 
0.065759

>  <SCORE.RESTR.CAVITY>  (6) 
0.065759

>  <SCORE.RESTR.norm>  (6) 
0.00313138

>  <SCORE.SYSTEM>  (6) 
-0.024693

>  <SCORE.SYSTEM.CONST>  (6) 
0

>  <SCORE.SYSTEM.DIHEDRAL>  (6) 
0.272796

>  <SCORE.SYSTEM.VDW>  (6) 
-0.161091

>  <SCORE.SYSTEM.norm>  (6) 
-0.00117586

>  <SCORE.heavy>  (6) 
21

>  <SCORE.norm>  (6) 
-0.864038

>  <Predicted_Rank>  (6) 
6.0

$$$$
7lng_h
     RDKit          3D

 24 26  0  0  0  0  0  0  0  0999 V2000
   13.2434   11.9458    2.9963 P   0  0  1  0  0  0  0  0  0  0  0  0
   14.4213   11.0450    2.9699 O   0  0  0  0  0  0  0  0  0  0  0  0
   11.8634   11.4014    3.0654 O   0  0  0  0  0  0  0  0  0  0  0  0
   14.1901   14.7179    5.7041 C   0  0  0  0  0  0  0  0  0  0  0  0
   14.4212   13.7369    6.7223 O   0  0  0  0  0  0  0  0  0  0  0  0
   14.4637   13.8845    4.4578 C   0  0  2  0  0  0  0  0  0  0  0  0
   13.3540   12.9532    4.2606 O   0  0  0  0  0  0  0  0  0  0  0  0
   15.6832   13.0855    4.7945 C   0  0  1  0  0  0  0  0  0  0  0  0
   16.9302   13.8315    4.6638 O   0  0  0  0  0  0  0  0  0  0  0  0
   15.3889   12.7490    6.2496 C   0  0  2  0  0  0  0  0  0  0  0  0
   17.2253    8.1765    7.4201 N   0  0  0  0  0  0  0  0  0  0  0  0
   17.8264    9.4604    7.4838 C   0  0  0  0  0  0  0  0  0  0  0  0
   19.0919    9.6069    7.9030 N   0  0  0  0  0  0  0  0  0  0  0  0
   17.0961   10.5353    7.1116 N   0  0  0  0  0  0  0  0  0  0  0  0
   15.8263   10.3819    6.6883 C   0  0  0  0  0  0  0  0  0  0  0  0
   15.2184    9.1746    6.6254 C   0  0  0  0  0  0  0  0  0  0  0  0
   15.8806    8.0644    6.9738 C   0  0  0  0  0  0  0  0  0  0  0  0
   15.3434    6.9493    6.9199 O   0  0  0  0  0  0  0  0  0  0  0  0
   13.9777    9.3613    6.1677 N   0  0  0  0  0  0  0  0  0  0  0  0
   13.8106   10.6632    5.9591 C   0  0  0  0  0  0  0  0  0  0  0  0
   14.9530   11.3015    6.2942 N   0  0  0  0  0  0  0  0  0  0  0  0
   17.6699   13.2595    4.8815 H   0  0  0  0  0  0  0  0  0  0  0  0
   19.4808   10.5313    8.0218 H   0  0  0  0  0  0  0  0  0  0  0  0
   19.6558    8.7925    8.0999 H   0  0  0  0  0  0  0  0  0  0  0  0
  1  2  1  1
  1  3  2  0
  1  7  1  0
  4  5  1  0
  4  6  1  0
  5 10  1  0
  6  7  1  1
  6  8  1  0
  8  9  1  1
  8 10  1  0
  9 22  1  0
 10 21  1  6
 11 12  1  0
 11 17  1  0
 12 13  1  0
 12 14  2  0
 13 23  1  0
 13 24  1  0
 14 15  1  0
 15 16  2  0
 15 21  1  0
 16 17  1  0
 16 19  1  0
 17 18  2  0
 19 20  2  0
 20 21  1  0
M  CHG  1   2  -1
M  END
>  <CHROM.0>  (7) 
-59.03222686

>  <CHROM.1>  (7) 
59.32777071,176.90208239,-179.21293821,-139.07093575,-174.56998712,15.12803902
11.19073540,5.57960174,2.28546199,-0.64843877,-0.19596645

>  <Name>  (7) 
7lng_h

>  <RI>  (7) 
8.5107e+06

>  <Rbt.Current_Directory>  (7) 
/home/jta30/NA_complexes/7lng

>  <Rbt.Executable>  (7) 
rbdock ($Id: //depot/dev/client3/rdock/2013.1/src/exe/rbdock.cxx#4 $)

>  <Rbt.Library>  (7) 
libRbt.so (2013.1, Build901 2013/11/27)

>  <Rbt.Parameter_File>  (7) 
/software/dev_tools/swtree/cs400_centos7.2_pe2016-08/rdock/2013.1/centos7.2_conda/build/data/scripts/dock.prm

>  <Rbt.Receptor>  (7) 
7lng.prm

>  <SCORE>  (7) 
-18.8947

>  <SCORE.INTER>  (7) 
-13.5968

>  <SCORE.INTER.CONST>  (7) 
1

>  <SCORE.INTER.POLAR>  (7) 
-1.85359

>  <SCORE.INTER.REPUL>  (7) 
0.0040743

>  <SCORE.INTER.ROT>  (7) 
4

>  <SCORE.INTER.VDW>  (7) 
-16.715

>  <SCORE.INTER.norm>  (7) 
-0.647468

>  <SCORE.INTRA>  (7) 
-5.28666

>  <SCORE.INTRA.DIHEDRAL>  (7) 
-8.22416

>  <SCORE.INTRA.DIHEDRAL.0>  (7) 
10.6104

>  <SCORE.INTRA.POLAR>  (7) 
0

>  <SCORE.INTRA.POLAR.0>  (7) 
0

>  <SCORE.INTRA.REPUL>  (7) 
0

>  <SCORE.INTRA.REPUL.0>  (7) 
0

>  <SCORE.INTRA.VDW>  (7) 
-1.17458

>  <SCORE.INTRA.VDW.0>  (7) 
-1.96818

>  <SCORE.INTRA.norm>  (7) 
-0.251746

>  <SCORE.RESTR>  (7) 
0

>  <SCORE.RESTR.CAVITY>  (7) 
0

>  <SCORE.RESTR.norm>  (7) 
0

>  <SCORE.SYSTEM>  (7) 
-0.0112123

>  <SCORE.SYSTEM.CONST>  (7) 
0

>  <SCORE.SYSTEM.DIHEDRAL>  (7) 
0.273986

>  <SCORE.SYSTEM.VDW>  (7) 
-0.148205

>  <SCORE.SYSTEM.norm>  (7) 
-0.000533917

>  <SCORE.heavy>  (7) 
21

>  <SCORE.norm>  (7) 
-0.899747

>  <Predicted_Rank>  (7) 
7.0

$$$$
7lng_h
     RDKit          3D

 24 26  0  0  0  0  0  0  0  0999 V2000
   17.3200    5.9097    4.1207 P   0  0  1  0  0  0  0  0  0  0  0  0
   18.4709    5.6105    5.0070 O   0  0  0  0  0  0  0  0  0  0  0  0
   16.2668    4.8948    3.8630 O   0  0  0  0  0  0  0  0  0  0  0  0
   14.5374    6.2834    5.7407 C   0  0  0  0  0  0  0  0  0  0  0  0
   14.9283    6.9220    6.9622 O   0  0  0  0  0  0  0  0  0  0  0  0
   15.0615    7.2935    4.7270 C   0  0  2  0  0  0  0  0  0  0  0  0
   16.5199    7.2023    4.6815 O   0  0  0  0  0  0  0  0  0  0  0  0
   14.6995    8.6284    5.2980 C   0  0  1  0  0  0  0  0  0  0  0  0
   13.3087    9.0074    5.0727 O   0  0  0  0  0  0  0  0  0  0  0  0
   14.9714    8.3706    6.7734 C   0  0  2  0  0  0  0  0  0  0  0  0
   16.8650   13.0309    7.3613 N   0  0  0  0  0  0  0  0  0  0  0  0
   15.5485   12.5974    7.0572 C   0  0  0  0  0  0  0  0  0  0  0  0
   14.5600   13.4833    6.8658 N   0  0  0  0  0  0  0  0  0  0  0  0
   15.3105   11.2700    6.9633 N   0  0  0  0  0  0  0  0  0  0  0  0
   16.3078   10.3846    7.1533 C   0  0  0  0  0  0  0  0  0  0  0  0
   17.5718   10.7622    7.4554 C   0  0  0  0  0  0  0  0  0  0  0  0
   17.8835   12.0599    7.5607 C   0  0  0  0  0  0  0  0  0  0  0  0
   19.0353   12.4265    7.8327 O   0  0  0  0  0  0  0  0  0  0  0  0
   18.3138    9.6583    7.5762 N   0  0  0  0  0  0  0  0  0  0  0  0
   17.5248    8.6102    7.3643 C   0  0  0  0  0  0  0  0  0  0  0  0
   16.2749    9.0576    7.1143 N   0  0  0  0  0  0  0  0  0  0  0  0
   13.1341    9.0386    4.1292 H   0  0  0  0  0  0  0  0  0  0  0  0
   14.2186   14.0345    7.6401 H   0  0  0  0  0  0  0  0  0  0  0  0
   14.1571   13.5992    5.9469 H   0  0  0  0  0  0  0  0  0  0  0  0
  1  2  1  1
  1  3  2  0
  1  7  1  0
  4  5  1  0
  4  6  1  0
  5 10  1  0
  6  7  1  1
  6  8  1  0
  8  9  1  1
  8 10  1  0
  9 22  1  0
 10 21  1  6
 11 12  1  0
 11 17  1  0
 12 13  1  0
 12 14  2  0
 13 23  1  0
 13 24  1  0
 14 15  1  0
 15 16  2  0
 15 21  1  0
 16 17  1  0
 16 19  1  0
 17 18  2  0
 19 20  2  0
 20 21  1  0
M  CHG  1   2  -1
M  END
>  <CHROM.0>  (8) 
-61.01863335

>  <CHROM.1>  (8) 
-137.85737186,67.08049234,-59.58929229,-170.04420606,-68.38931518,16.28227431
8.96119659,6.13560254,-1.61053750,-0.17880959,0.39958968

>  <Name>  (8) 
7lng_h

>  <RI>  (8) 
8.5107e+06

>  <Rbt.Current_Directory>  (8) 
/home/jta30/NA_complexes/7lng

>  <Rbt.Executable>  (8) 
rbdock ($Id: //depot/dev/client3/rdock/2013.1/src/exe/rbdock.cxx#4 $)

>  <Rbt.Library>  (8) 
libRbt.so (2013.1, Build901 2013/11/27)

>  <Rbt.Parameter_File>  (8) 
/software/dev_tools/swtree/cs400_centos7.2_pe2016-08/rdock/2013.1/centos7.2_conda/build/data/scripts/dock.prm

>  <Rbt.Receptor>  (8) 
7lng.prm

>  <SCORE>  (8) 
-19.0819

>  <SCORE.INTER>  (8) 
-15.865

>  <SCORE.INTER.CONST>  (8) 
1

>  <SCORE.INTER.POLAR>  (8) 
-2.1251

>  <SCORE.INTER.REPUL>  (8) 
0

>  <SCORE.INTER.ROT>  (8) 
4

>  <SCORE.INTER.VDW>  (8) 
-18.0396

>  <SCORE.INTER.norm>  (8) 
-0.755475

>  <SCORE.INTRA>  (8) 
-3.19176

>  <SCORE.INTRA.DIHEDRAL>  (8) 
-6.66283

>  <SCORE.INTRA.DIHEDRAL.0>  (8) 
10.6104

>  <SCORE.INTRA.POLAR>  (8) 
0

>  <SCORE.INTRA.POLAR.0>  (8) 
0

>  <SCORE.INTRA.REPUL>  (8) 
0

>  <SCORE.INTRA.REPUL.0>  (8) 
0

>  <SCORE.INTRA.VDW>  (8) 
0.139656

>  <SCORE.INTRA.VDW.0>  (8) 
-1.96818

>  <SCORE.INTRA.norm>  (8) 
-0.151988

>  <SCORE.RESTR>  (8) 
0

>  <SCORE.RESTR.CAVITY>  (8) 
0

>  <SCORE.RESTR.norm>  (8) 
0

>  <SCORE.SYSTEM>  (8) 
-0.0252168

>  <SCORE.SYSTEM.CONST>  (8) 
0

>  <SCORE.SYSTEM.DIHEDRAL>  (8) 
0.274447

>  <SCORE.SYSTEM.VDW>  (8) 
-0.16244

>  <SCORE.SYSTEM.norm>  (8) 
-0.0012008

>  <SCORE.heavy>  (8) 
21

>  <SCORE.norm>  (8) 
-0.908664

>  <Predicted_Rank>  (8) 
8.0

$$$$
7lng_h
     RDKit          3D

 24 26  0  0  0  0  0  0  0  0999 V2000
   15.0712    9.5150    3.3914 P   0  0  1  0  0  0  0  0  0  0  0  0
   14.0271    9.9172    4.3649 O   0  0  0  0  0  0  0  0  0  0  0  0
   15.7146   10.5143    2.5009 O   0  0  0  0  0  0  0  0  0  0  0  0
   17.4942    7.1780    5.5235 C   0  0  0  0  0  0  0  0  0  0  0  0
   18.0068    8.2556    6.3165 O   0  0  0  0  0  0  0  0  0  0  0  0
   16.1253    7.7387    5.1569 C   0  0  2  0  0  0  0  0  0  0  0  0
   16.3008    8.8041    4.1712 O   0  0  0  0  0  0  0  0  0  0  0  0
   15.6168    8.3577    6.4207 C   0  0  1  0  0  0  0  0  0  0  0  0
   15.0562    7.3955    7.3633 O   0  0  0  0  0  0  0  0  0  0  0  0
   16.9037    8.9709    6.9546 C   0  0  2  0  0  0  0  0  0  0  0  0
   19.3035   13.2497    8.2129 N   0  0  0  0  0  0  0  0  0  0  0  0
   19.5754   11.8998    8.5557 C   0  0  0  0  0  0  0  0  0  0  0  0
   20.6130   11.5867    9.3457 N   0  0  0  0  0  0  0  0  0  0  0  0
   18.7649   10.9335    8.0693 N   0  0  0  0  0  0  0  0  0  0  0  0
   17.7222   11.2539    7.2787 C   0  0  0  0  0  0  0  0  0  0  0  0
   17.4403   12.5288    6.9230 C   0  0  0  0  0  0  0  0  0  0  0  0
   18.1964   13.5391    7.3699 C   0  0  0  0  0  0  0  0  0  0  0  0
   17.9530   14.7134    7.0591 O   0  0  0  0  0  0  0  0  0  0  0  0
   16.3548   12.5091    6.1451 N   0  0  0  0  0  0  0  0  0  0  0  0
   15.9726   11.2435    6.0089 C   0  0  0  0  0  0  0  0  0  0  0  0
   16.8279   10.4600    6.7012 N   0  0  0  0  0  0  0  0  0  0  0  0
   14.6527    7.8643    8.0977 H   0  0  0  0  0  0  0  0  0  0  0  0
   21.4870   11.2883    8.9372 H   0  0  0  0  0  0  0  0  0  0  0  0
   20.5199   11.6496   10.3495 H   0  0  0  0  0  0  0  0  0  0  0  0
  1  2  1  1
  1  3  2  0
  1  7  1  0
  4  5  1  0
  4  6  1  0
  5 10  1  0
  6  7  1  6
  6  8  1  0
  8  9  1  1
  8 10  1  0
  9 22  1  0
 10 21  1  6
 11 12  1  0
 11 17  1  0
 12 13  1  0
 12 14  2  0
 13 23  1  0
 13 24  1  0
 14 15  1  0
 15 16  2  0
 15 21  1  0
 16 17  1  0
 16 19  1  0
 17 18  2  0
 19 20  2  0
 20 21  1  0
M  CHG  1   2  -1
M  END
>  <CHROM.0>  (9) 
59.26942813

>  <CHROM.1>  (9) 
48.84690048,171.75893462,-173.02816861,-72.10137082,-97.16993199,16.95610654
10.39495680,6.17153761,2.61140641,0.87667272,2.97137731

>  <Name>  (9) 
7lng_h

>  <RI>  (9) 
8.5107e+06

>  <Rbt.Current_Directory>  (9) 
/home/jta30/NA_complexes/7lng

>  <Rbt.Executable>  (9) 
rbdock ($Id: //depot/dev/client3/rdock/2013.1/src/exe/rbdock.cxx#4 $)

>  <Rbt.Library>  (9) 
libRbt.so (2013.1, Build901 2013/11/27)

>  <Rbt.Parameter_File>  (9) 
/software/dev_tools/swtree/cs400_centos7.2_pe2016-08/rdock/2013.1/centos7.2_conda/build/data/scripts/dock.prm

>  <Rbt.Receptor>  (9) 
7lng.prm

>  <SCORE>  (9) 
-16.0347

>  <SCORE.INTER>  (9) 
-12.1473

>  <SCORE.INTER.CONST>  (9) 
1

>  <SCORE.INTER.POLAR>  (9) 
-3.35028

>  <SCORE.INTER.REPUL>  (9) 
0

>  <SCORE.INTER.ROT>  (9) 
4

>  <SCORE.INTER.VDW>  (9) 
-10.1564

>  <SCORE.INTER.norm>  (9) 
-0.578444

>  <SCORE.INTRA>  (9) 
-4.48235

>  <SCORE.INTRA.DIHEDRAL>  (9) 
-7.60644

>  <SCORE.INTRA.DIHEDRAL.0>  (9) 
10.6104

>  <SCORE.INTRA.POLAR>  (9) 
0

>  <SCORE.INTRA.POLAR.0>  (9) 
0

>  <SCORE.INTRA.REPUL>  (9) 
0

>  <SCORE.INTRA.REPUL.0>  (9) 
0

>  <SCORE.INTRA.VDW>  (9) 
-0.679128

>  <SCORE.INTRA.VDW.0>  (9) 
-1.96818

>  <SCORE.INTRA.norm>  (9) 
-0.213445

>  <SCORE.RESTR>  (9) 
0.00631345

>  <SCORE.RESTR.CAVITY>  (9) 
0.00631345

>  <SCORE.RESTR.norm>  (9) 
0.00030064

>  <SCORE.SYSTEM>  (9) 
0.588688

>  <SCORE.SYSTEM.CONST>  (9) 
0

>  <SCORE.SYSTEM.DIHEDRAL>  (9) 
0.272147

>  <SCORE.SYSTEM.VDW>  (9) 
0.452614

>  <SCORE.SYSTEM.norm>  (9) 
0.0280328

>  <SCORE.heavy>  (9) 
21

>  <SCORE.norm>  (9) 
-0.763556

>  <Predicted_Rank>  (9) 
9.0

$$$$
7lng_h
     RDKit          3D

 24 26  0  0  0  0  0  0  0  0999 V2000
   12.9717   13.2194    2.8829 P   0  0  1  0  0  0  0  0  0  0  0  0
   11.9019   12.1935    2.9344 O   0  0  0  0  0  0  0  0  0  0  0  0
   12.6793   14.6469    3.1697 O   0  0  0  0  0  0  0  0  0  0  0  0
   14.3448   14.6311    5.5270 C   0  0  0  0  0  0  0  0  0  0  0  0
   14.2110   13.6679    6.5792 O   0  0  0  0  0  0  0  0  0  0  0  0
   15.0860   13.7971    4.4889 C   0  0  2  0  0  0  0  0  0  0  0  0
   14.1572   12.8250    3.9146 O   0  0  0  0  0  0  0  0  0  0  0  0
   16.1170   13.0454    5.2704 C   0  0  1  0  0  0  0  0  0  0  0  0
   17.3006   13.8344    5.5950 O   0  0  0  0  0  0  0  0  0  0  0  0
   15.3143   12.7112    6.5198 C   0  0  2  0  0  0  0  0  0  0  0  0
   17.3091    8.1296    7.3438 N   0  0  0  0  0  0  0  0  0  0  0  0
   17.8561    9.4255    7.5310 C   0  0  0  0  0  0  0  0  0  0  0  0
   19.1053    9.5844    7.9925 N   0  0  0  0  0  0  0  0  0  0  0  0
   17.0909   10.4993    7.2333 N   0  0  0  0  0  0  0  0  0  0  0  0
   15.8378   10.3340    6.7670 C   0  0  0  0  0  0  0  0  0  0  0  0
   15.2809    9.1138    6.5870 C   0  0  0  0  0  0  0  0  0  0  0  0
   15.9799    8.0043    6.8564 C   0  0  0  0  0  0  0  0  0  0  0  0
   15.4898    6.8780    6.6948 O   0  0  0  0  0  0  0  0  0  0  0  0
   14.0437    9.2910    6.1161 N   0  0  0  0  0  0  0  0  0  0  0  0
   13.8285   10.5986    6.0145 C   0  0  0  0  0  0  0  0  0  0  0  0
   14.9366   11.2495    6.4307 N   0  0  0  0  0  0  0  0  0  0  0  0
   17.7263   14.1217    4.7838 H   0  0  0  0  0  0  0  0  0  0  0  0
   19.3809   10.4602    8.4131 H   0  0  0  0  0  0  0  0  0  0  0  0
   19.7704    8.8278    7.9192 H   0  0  0  0  0  0  0  0  0  0  0  0
  1  2  1  1
  1  3  2  0
  1  7  1  0
  4  5  1  0
  4  6  1  0
  5 10  1  0
  6  7  1  1
  6  8  1  0
  8  9  1  1
  8 10  1  0
  9 22  1  0
 10 21  1  6
 11 12  1  0
 11 17  1  0
 12 13  1  0
 12 14  2  0
 13 23  1  0
 13 24  1  0
 14 15  1  0
 15 16  2  0
 15 21  1  0
 16 17  1  0
 16 19  1  0
 17 18  2  0
 19 20  2  0
 20 21  1  0
M  CHG  1   2  -1
M  END
>  <CHROM.0>  (10) 
-179.12658511

>  <CHROM.1>  (10) 
-156.27084460,72.76440807,-60.80880203,-160.30031878,-159.34344622,15.13360160
11.49904135,5.61852536,2.22272643,-0.57414573,-0.23346823

>  <Name>  (10) 
7lng_h

>  <RI>  (10) 
8.5107e+06

>  <Rbt.Current_Directory>  (10) 
/home/jta30/NA_complexes/7lng

>  <Rbt.Executable>  (10) 
rbdock ($Id: //depot/dev/client3/rdock/2013.1/src/exe/rbdock.cxx#4 $)

>  <Rbt.Library>  (10) 
libRbt.so (2013.1, Build901 2013/11/27)

>  <Rbt.Parameter_File>  (10) 
/software/dev_tools/swtree/cs400_centos7.2_pe2016-08/rdock/2013.1/centos7.2_conda/build/data/scripts/dock.prm

>  <Rbt.Receptor>  (10) 
7lng.prm

>  <SCORE>  (10) 
-16.8462

>  <SCORE.INTER>  (10) 
-13.4441

>  <SCORE.INTER.CONST>  (10) 
1

>  <SCORE.INTER.POLAR>  (10) 
-1.85359

>  <SCORE.INTER.REPUL>  (10) 
0

>  <SCORE.INTER.ROT>  (10) 
4

>  <SCORE.INTER.VDW>  (10) 
-16.5419

>  <SCORE.INTER.norm>  (10) 
-0.640196

>  <SCORE.INTRA>  (10) 
-3.35885

>  <SCORE.INTRA.DIHEDRAL>  (10) 
-6.82095

>  <SCORE.INTRA.DIHEDRAL.0>  (10) 
10.6104

>  <SCORE.INTRA.POLAR>  (10) 
0

>  <SCORE.INTRA.POLAR.0>  (10) 
0

>  <SCORE.INTRA.REPUL>  (10) 
0

>  <SCORE.INTRA.REPUL.0>  (10) 
0

>  <SCORE.INTRA.VDW>  (10) 
0.0516217

>  <SCORE.INTRA.VDW.0>  (10) 
-1.96818

>  <SCORE.INTRA.norm>  (10) 
-0.159945

>  <SCORE.RESTR>  (10) 
0

>  <SCORE.RESTR.CAVITY>  (10) 
0

>  <SCORE.RESTR.norm>  (10) 
0

>  <SCORE.SYSTEM>  (10) 
-0.0431806

>  <SCORE.SYSTEM.CONST>  (10) 
0

>  <SCORE.SYSTEM.DIHEDRAL>  (10) 
0.273193

>  <SCORE.SYSTEM.VDW>  (10) 
-0.179777

>  <SCORE.SYSTEM.norm>  (10) 
-0.00205622

>  <SCORE.heavy>  (10) 
21

>  <SCORE.norm>  (10) 
-0.802198

>  <Predicted_Rank>  (10) 
10.0

$$$$
7lng_h
     RDKit          3D

 24 26  0  0  0  0  0  0  0  0999 V2000
   13.2740   11.9732    3.0076 P   0  0  1  0  0  0  0  0  0  0  0  0
   14.4686   11.0942    2.9999 O   0  0  0  0  0  0  0  0  0  0  0  0
   11.9031   11.4032    3.0440 O   0  0  0  0  0  0  0  0  0  0  0  0
   14.1235   14.7286    5.7645 C   0  0  0  0  0  0  0  0  0  0  0  0
   14.3469   13.7366    6.7739 O   0  0  0  0  0  0  0  0  0  0  0  0
   14.4329   13.9160    4.5128 C   0  0  2  0  0  0  0  0  0  0  0  0
   13.3396   12.9735    4.2805 O   0  0  0  0  0  0  0  0  0  0  0  0
   15.6557   13.1280    4.8634 C   0  0  1  0  0  0  0  0  0  0  0  0
   16.8953   13.8916    4.7681 O   0  0  0  0  0  0  0  0  0  0  0  0
   15.3366   12.7677    6.3075 C   0  0  2  0  0  0  0  0  0  0  0  0
   17.2265    8.1974    7.3987 N   0  0  0  0  0  0  0  0  0  0  0  0
   17.8112    9.4873    7.4883 C   0  0  0  0  0  0  0  0  0  0  0  0
   19.0735    9.6418    7.9144 N   0  0  0  0  0  0  0  0  0  0  0  0
   17.0687   10.5597    7.1338 N   0  0  0  0  0  0  0  0  0  0  0  0
   15.8023   10.3985    6.7034 C   0  0  0  0  0  0  0  0  0  0  0  0
   15.2097    9.1850    6.6160 C   0  0  0  0  0  0  0  0  0  0  0  0
   15.8847    8.0769    6.9459 C   0  0  0  0  0  0  0  0  0  0  0  0
   15.3618    6.9564    6.8694 O   0  0  0  0  0  0  0  0  0  0  0  0
   13.9682    9.3648    6.1578 N   0  0  0  0  0  0  0  0  0  0  0  0
   13.7855   10.6681    5.9729 C   0  0  0  0  0  0  0  0  0  0  0  0
   14.9188   11.3143    6.3237 N   0  0  0  0  0  0  0  0  0  0  0  0
   17.0158   14.1951    3.8652 H   0  0  0  0  0  0  0  0  0  0  0  0
   19.3985   10.5504    8.2123 H   0  0  0  0  0  0  0  0  0  0  0  0
   19.6989    8.8491    7.9374 H   0  0  0  0  0  0  0  0  0  0  0  0
  1  2  1  1
  1  3  2  0
  1  7  1  0
  4  5  1  0
  4  6  1  0
  5 10  1  0
  6  7  1  1
  6  8  1  0
  8  9  1  1
  8 10  1  0
  9 22  1  0
 10 21  1  6
 11 12  1  0
 11 17  1  0
 12 13  1  0
 12 14  2  0
 13 23  1  0
 13 24  1  0
 14 15  1  0
 15 16  2  0
 15 21  1  0
 16 17  1  0
 16 19  1  0
 17 18  2  0
 19 20  2  0
 20 21  1  0
M  CHG  1   2  -1
M  END
>  <CHROM.0>  (11) 
59.12324752

>  <CHROM.1>  (11) 
58.82511831,177.45758522,-60.96004876,-140.08412108,-163.43300131,15.11372195
11.21513134,5.59591630,2.29051481,-0.66235849,-0.17265777

>  <Name>  (11) 
7lng_h

>  <RI>  (11) 
8.5107e+06

>  <Rbt.Current_Directory>  (11) 
/home/jta30/NA_complexes/7lng

>  <Rbt.Executable>  (11) 
rbdock ($Id: //depot/dev/client3/rdock/2013.1/src/exe/rbdock.cxx#4 $)

>  <Rbt.Library>  (11) 
libRbt.so (2013.1, Build901 2013/11/27)

>  <Rbt.Parameter_File>  (11) 
/software/dev_tools/swtree/cs400_centos7.2_pe2016-08/rdock/2013.1/centos7.2_conda/build/data/scripts/dock.prm

>  <Rbt.Receptor>  (11) 
7lng.prm

>  <SCORE>  (11) 
-18.2869

>  <SCORE.INTER>  (11) 
-13.5477

>  <SCORE.INTER.CONST>  (11) 
1

>  <SCORE.INTER.POLAR>  (11) 
-1.85359

>  <SCORE.INTER.REPUL>  (11) 
0.00380741

>  <SCORE.INTER.ROT>  (11) 
4

>  <SCORE.INTER.VDW>  (11) 
-16.6645

>  <SCORE.INTER.norm>  (11) 
-0.645127

>  <SCORE.INTRA>  (11) 
-5.32844

>  <SCORE.INTRA.DIHEDRAL>  (11) 
-8.24532

>  <SCORE.INTRA.DIHEDRAL.0>  (11) 
10.6104

>  <SCORE.INTRA.POLAR>  (11) 
0

>  <SCORE.INTRA.POLAR.0>  (11) 
0

>  <SCORE.INTRA.REPUL>  (11) 
0

>  <SCORE.INTRA.REPUL.0>  (11) 
0

>  <SCORE.INTRA.VDW>  (11) 
-1.20578

>  <SCORE.INTRA.VDW.0>  (11) 
-1.96818

>  <SCORE.INTRA.norm>  (11) 
-0.253735

>  <SCORE.RESTR>  (11) 
0

>  <SCORE.RESTR.CAVITY>  (11) 
0

>  <SCORE.RESTR.norm>  (11) 
0

>  <SCORE.SYSTEM>  (11) 
0.589186

>  <SCORE.SYSTEM.CONST>  (11) 
0

>  <SCORE.SYSTEM.DIHEDRAL>  (11) 
0.27322

>  <SCORE.SYSTEM.VDW>  (11) 
0.452576

>  <SCORE.SYSTEM.norm>  (11) 
0.0280565

>  <SCORE.heavy>  (11) 
21

>  <SCORE.norm>  (11) 
-0.870805

>  <Predicted_Rank>  (11) 
11.0

$$$$
7lng_h
     RDKit          3D

 24 26  0  0  0  0  0  0  0  0999 V2000
   13.6434   11.9173    2.8811 P   0  0  1  0  0  0  0  0  0  0  0  0
   13.7566   12.6893    1.6198 O   0  0  0  0  0  0  0  0  0  0  0  0
   14.6776   10.9239    3.2672 O   0  0  0  0  0  0  0  0  0  0  0  0
   14.1595   14.7124    5.6804 C   0  0  0  0  0  0  0  0  0  0  0  0
   14.2717   13.7338    6.7208 O   0  0  0  0  0  0  0  0  0  0  0  0
   14.6130   13.8871    4.4821 C   0  0  2  0  0  0  0  0  0  0  0  0
   13.5578   12.9350    4.1390 O   0  0  0  0  0  0  0  0  0  0  0  0
   15.7919   13.1111    4.9789 C   0  0  1  0  0  0  0  0  0  0  0  0
   17.0306   13.8812    5.0154 O   0  0  0  0  0  0  0  0  0  0  0  0
   15.3128   12.7658    6.3819 C   0  0  2  0  0  0  0  0  0  0  0  0
   17.2248    8.1857    7.3898 N   0  0  0  0  0  0  0  0  0  0  0  0
   17.8021    9.4767    7.5062 C   0  0  0  0  0  0  0  0  0  0  0  0
   19.0623    9.6298    7.9390 N   0  0  0  0  0  0  0  0  0  0  0  0
   17.0547   10.5518    7.1704 N   0  0  0  0  0  0  0  0  0  0  0  0
   15.7904   10.3920    6.7331 C   0  0  0  0  0  0  0  0  0  0  0  0
   15.2049    9.1772    6.6204 C   0  0  0  0  0  0  0  0  0  0  0  0
   15.8850    8.0666    6.9308 C   0  0  0  0  0  0  0  0  0  0  0  0
   15.3685    6.9449    6.8310 O   0  0  0  0  0  0  0  0  0  0  0  0
   13.9637    9.3590    6.1620 N   0  0  0  0  0  0  0  0  0  0  0  0
   13.7743   10.6646    6.0020 C   0  0  0  0  0  0  0  0  0  0  0  0
   14.9029   11.3101    6.3686 N   0  0  0  0  0  0  0  0  0  0  0  0
   16.9223   14.6344    5.6009 H   0  0  0  0  0  0  0  0  0  0  0  0
   19.6561    8.8221    8.0611 H   0  0  0  0  0  0  0  0  0  0  0  0
   19.4172   10.5532    8.1426 H   0  0  0  0  0  0  0  0  0  0  0  0
  1  2  1  6
  1  3  2  0
  1  7  1  0
  4  5  1  0
  4  6  1  0
  5 10  1  0
  6  7  1  1
  6  8  1  0
  8  9  1  1
  8 10  1  0
  9 22  1  0
 10 21  1  6
 11 12  1  0
 11 17  1  0
 12 13  1  0
 12 14  2  0
 13 23  1  0
 13 24  1  0
 14 15  1  0
 15 16  2  0
 15 21  1  0
 16 17  1  0
 16 19  1  0
 17 18  2  0
 19 20  2  0
 20 21  1  0
M  CHG  1   2  -1
M  END
>  <CHROM.0>  (12) 
-59.70766520

>  <CHROM.1>  (12) 
-60.93679089,177.58403101,60.26833583,-146.68697759,8.72121923,15.28007660
11.25866820,5.54068363,2.24902690,-0.81739735,-0.14527748

>  <Name>  (12) 
7lng_h

>  <RI>  (12) 
8.5107e+06

>  <Rbt.Current_Directory>  (12) 
/home/jta30/NA_complexes/7lng

>  <Rbt.Executable>  (12) 
rbdock ($Id: //depot/dev/client3/rdock/2013.1/src/exe/rbdock.cxx#4 $)

>  <Rbt.Library>  (12) 
libRbt.so (2013.1, Build901 2013/11/27)

>  <Rbt.Parameter_File>  (12) 
/software/dev_tools/swtree/cs400_centos7.2_pe2016-08/rdock/2013.1/centos7.2_conda/build/data/scripts/dock.prm

>  <Rbt.Receptor>  (12) 
7lng.prm

>  <SCORE>  (12) 
-18.3365

>  <SCORE.INTER>  (12) 
-13.0866

>  <SCORE.INTER.CONST>  (12) 
1

>  <SCORE.INTER.POLAR>  (12) 
-1.85359

>  <SCORE.INTER.REPUL>  (12) 
0

>  <SCORE.INTER.ROT>  (12) 
4

>  <SCORE.INTER.VDW>  (12) 
-16.1844

>  <SCORE.INTER.norm>  (12) 
-0.62317

>  <SCORE.INTRA>  (12) 
-5.23179

>  <SCORE.INTRA.DIHEDRAL>  (12) 
-8.26284

>  <SCORE.INTRA.DIHEDRAL.0>  (12) 
10.6104

>  <SCORE.INTRA.POLAR>  (12) 
0

>  <SCORE.INTRA.POLAR.0>  (12) 
0

>  <SCORE.INTRA.REPUL>  (12) 
0

>  <SCORE.INTRA.REPUL.0>  (12) 
0

>  <SCORE.INTRA.VDW>  (12) 
-1.10037

>  <SCORE.INTRA.VDW.0>  (12) 
-1.96818

>  <SCORE.INTRA.norm>  (12) 
-0.249133

>  <SCORE.RESTR>  (12) 
0

>  <SCORE.RESTR.CAVITY>  (12) 
0

>  <SCORE.RESTR.norm>  (12) 
0

>  <SCORE.SYSTEM>  (12) 
-0.018145

>  <SCORE.SYSTEM.CONST>  (12) 
0

>  <SCORE.SYSTEM.DIHEDRAL>  (12) 
0.270101

>  <SCORE.SYSTEM.VDW>  (12) 
-0.153196

>  <SCORE.SYSTEM.norm>  (12) 
-0.000864047

>  <SCORE.heavy>  (12) 
21

>  <SCORE.norm>  (12) 
-0.873167

>  <Predicted_Rank>  (12) 
12.0

$$$$
7lng_h
     RDKit          3D

 24 26  0  0  0  0  0  0  0  0999 V2000
   13.3306   12.0308    2.9964 P   0  0  1  0  0  0  0  0  0  0  0  0
   14.5312   11.1601    3.0065 O   0  0  0  0  0  0  0  0  0  0  0  0
   11.9635   11.4511    2.9710 O   0  0  0  0  0  0  0  0  0  0  0  0
   14.0578   14.7288    5.8434 C   0  0  0  0  0  0  0  0  0  0  0  0
   14.2615   13.7174    6.8375 O   0  0  0  0  0  0  0  0  0  0  0  0
   14.4182   13.9483    4.5849 C   0  0  2  0  0  0  0  0  0  0  0  0
   13.3456   12.9976    4.2965 O   0  0  0  0  0  0  0  0  0  0  0  0
   15.6393   13.1681    4.9578 C   0  0  1  0  0  0  0  0  0  0  0  0
   16.8711   13.9490    4.9197 O   0  0  0  0  0  0  0  0  0  0  0  0
   15.2786   12.7717    6.3826 C   0  0  2  0  0  0  0  0  0  0  0  0
   17.2145    8.1974    7.3716 N   0  0  0  0  0  0  0  0  0  0  0  0
   17.7811    9.4917    7.5044 C   0  0  0  0  0  0  0  0  0  0  0  0
   19.0357    9.6504    7.9508 N   0  0  0  0  0  0  0  0  0  0  0  0
   17.0290   10.5639    7.1700 N   0  0  0  0  0  0  0  0  0  0  0  0
   15.7703   10.3985    6.7189 C   0  0  0  0  0  0  0  0  0  0  0  0
   15.1949    9.1804    6.5904 C   0  0  0  0  0  0  0  0  0  0  0  0
   15.8802    8.0724    6.8983 C   0  0  0  0  0  0  0  0  0  0  0  0
   15.3731    6.9478    6.7842 O   0  0  0  0  0  0  0  0  0  0  0  0
   13.9570    9.3570    6.1212 N   0  0  0  0  0  0  0  0  0  0  0  0
   13.7595   10.6625    5.9701 C   0  0  0  0  0  0  0  0  0  0  0  0
   14.8797   11.3131    6.3532 N   0  0  0  0  0  0  0  0  0  0  0  0
   16.8029   14.6850    5.5326 H   0  0  0  0  0  0  0  0  0  0  0  0
   19.7367    8.9528    7.7463 H   0  0  0  0  0  0  0  0  0  0  0  0
   19.2793   10.4679    8.4916 H   0  0  0  0  0  0  0  0  0  0  0  0
  1  2  1  1
  1  3  2  0
  1  7  1  0
  4  5  1  0
  4  6  1  0
  5 10  1  0
  6  7  1  1
  6  8  1  0
  8  9  1  1
  8 10  1  0
  9 22  1  0
 10 21  1  6
 11 12  1  0
 11 17  1  0
 12 13  1  0
 12 14  2  0
 13 23  1  0
 13 24  1  0
 14 15  1  0
 15 16  2  0
 15 21  1  0
 16 17  1  0
 16 19  1  0
 17 18  2  0
 19 20  2  0
 20 21  1  0
M  CHG  1   2  -1
M  END
>  <CHROM.0>  (13) 
-178.52251364

>  <CHROM.1>  (13) 
59.32880254,177.12349879,59.85235516,-141.25700185,32.33261296,15.10292621
11.23399023,5.61810264,2.30547285,-0.69051199,-0.13183125

>  <Name>  (13) 
7lng_h

>  <RI>  (13) 
8.5107e+06

>  <Rbt.Current_Directory>  (13) 
/home/jta30/NA_complexes/7lng

>  <Rbt.Executable>  (13) 
rbdock ($Id: //depot/dev/client3/rdock/2013.1/src/exe/rbdock.cxx#4 $)

>  <Rbt.Library>  (13) 
libRbt.so (2013.1, Build901 2013/11/27)

>  <Rbt.Parameter_File>  (13) 
/software/dev_tools/swtree/cs400_centos7.2_pe2016-08/rdock/2013.1/centos7.2_conda/build/data/scripts/dock.prm

>  <Rbt.Receptor>  (13) 
7lng.prm

>  <SCORE>  (13) 
-18.8257

>  <SCORE.INTER>  (13) 
-13.6177

>  <SCORE.INTER.CONST>  (13) 
1

>  <SCORE.INTER.POLAR>  (13) 
-1.85359

>  <SCORE.INTER.REPUL>  (13) 
0.00159874

>  <SCORE.INTER.ROT>  (13) 
4

>  <SCORE.INTER.VDW>  (13) 
-16.7235

>  <SCORE.INTER.norm>  (13) 
-0.648464

>  <SCORE.INTRA>  (13) 
-5.16296

>  <SCORE.INTRA.DIHEDRAL>  (13) 
-8.239

>  <SCORE.INTRA.DIHEDRAL.0>  (13) 
10.6104

>  <SCORE.INTRA.POLAR>  (13) 
0

>  <SCORE.INTRA.POLAR.0>  (13) 
0

>  <SCORE.INTRA.REPUL>  (13) 
0

>  <SCORE.INTRA.REPUL.0>  (13) 
0

>  <SCORE.INTRA.VDW>  (13) 
-1.04346

>  <SCORE.INTRA.VDW.0>  (13) 
-1.96818

>  <SCORE.INTRA.norm>  (13) 
-0.245855

>  <SCORE.RESTR>  (13) 
0

>  <SCORE.RESTR.CAVITY>  (13) 
0

>  <SCORE.RESTR.norm>  (13) 
0

>  <SCORE.SYSTEM>  (13) 
-0.0449737

>  <SCORE.SYSTEM.CONST>  (13) 
0

>  <SCORE.SYSTEM.DIHEDRAL>  (13) 
0.279672

>  <SCORE.SYSTEM.VDW>  (13) 
-0.18481

>  <SCORE.SYSTEM.norm>  (13) 
-0.00214161

>  <SCORE.heavy>  (13) 
21

>  <SCORE.norm>  (13) 
-0.89646

>  <Predicted_Rank>  (13) 
13.0

$$$$
7lng_h
     RDKit          3D

 24 26  0  0  0  0  0  0  0  0999 V2000
   17.3975    5.8736    4.0576 P   0  0  1  0  0  0  0  0  0  0  0  0
   18.5053    5.5407    4.9858 O   0  0  0  0  0  0  0  0  0  0  0  0
   16.3654    4.8662    3.7034 O   0  0  0  0  0  0  0  0  0  0  0  0
   14.5930    6.1608    5.6685 C   0  0  0  0  0  0  0  0  0  0  0  0
   14.9579    6.7981    6.8987 O   0  0  0  0  0  0  0  0  0  0  0  0
   15.1012    7.1919    4.6679 C   0  0  2  0  0  0  0  0  0  0  0  0
   16.5618    7.1362    4.6344 O   0  0  0  0  0  0  0  0  0  0  0  0
   14.7023    8.5127    5.2470 C   0  0  1  0  0  0  0  0  0  0  0  0
   13.3048    8.8601    5.0127 O   0  0  0  0  0  0  0  0  0  0  0  0
   14.9677    8.2489    6.7225 C   0  0  2  0  0  0  0  0  0  0  0  0
   16.7694   12.9507    7.2670 N   0  0  0  0  0  0  0  0  0  0  0  0
   15.4677   12.4893    6.9407 C   0  0  0  0  0  0  0  0  0  0  0  0
   14.4694   13.3547    6.7100 N   0  0  0  0  0  0  0  0  0  0  0  0
   15.2541   11.1567    6.8660 N   0  0  0  0  0  0  0  0  0  0  0  0
   16.2613   10.2919    7.0955 C   0  0  0  0  0  0  0  0  0  0  0  0
   17.5114   10.6965    7.4196 C   0  0  0  0  0  0  0  0  0  0  0  0
   17.7990   12.0010    7.5079 C   0  0  0  0  0  0  0  0  0  0  0  0
   18.9378   12.3921    7.7995 O   0  0  0  0  0  0  0  0  0  0  0  0
   18.2686    9.6078    7.5781 N   0  0  0  0  0  0  0  0  0  0  0  0
   17.5022    8.5427    7.3675 C   0  0  0  0  0  0  0  0  0  0  0  0
   16.2513    8.9641    7.0805 N   0  0  0  0  0  0  0  0  0  0  0  0
   13.1164    9.7143    5.4085 H   0  0  0  0  0  0  0  0  0  0  0  0
   13.9370   13.2951    5.8539 H   0  0  0  0  0  0  0  0  0  0  0  0
   14.2502   14.0659    7.3928 H   0  0  0  0  0  0  0  0  0  0  0  0
  1  2  1  1
  1  3  2  0
  1  7  1  0
  4  5  1  0
  4  6  1  0
  5 10  1  0
  6  7  1  1
  6  8  1  0
  8  9  1  1
  8 10  1  0
  9 22  1  0
 10 21  1  6
 11 12  1  0
 11 17  1  0
 12 13  1  0
 12 14  2  0
 13 23  1  0
 13 24  1  0
 14 15  1  0
 15 16  2  0
 15 21  1  0
 16 17  1  0
 16 19  1  0
 17 18  2  0
 19 20  2  0
 20 21  1  0
M  CHG  1   2  -1
M  END
>  <CHROM.0>  (14) 
-60.84688694

>  <CHROM.1>  (14) 
-134.92383105,67.65267289,179.97588696,-171.84810886,126.40915992,16.27342373
8.87941285,6.07589117,-1.58785895,-0.18090502,0.40277053

>  <Name>  (14) 
7lng_h

>  <RI>  (14) 
8.5107e+06

>  <Rbt.Current_Directory>  (14) 
/home/jta30/NA_complexes/7lng

>  <Rbt.Executable>  (14) 
rbdock ($Id: //depot/dev/client3/rdock/2013.1/src/exe/rbdock.cxx#4 $)

>  <Rbt.Library>  (14) 
libRbt.so (2013.1, Build901 2013/11/27)

>  <Rbt.Parameter_File>  (14) 
/software/dev_tools/swtree/cs400_centos7.2_pe2016-08/rdock/2013.1/centos7.2_conda/build/data/scripts/dock.prm

>  <Rbt.Receptor>  (14) 
7lng.prm

>  <SCORE>  (14) 
-19.565

>  <SCORE.INTER>  (14) 
-16.3141

>  <SCORE.INTER.CONST>  (14) 
1

>  <SCORE.INTER.POLAR>  (14) 
-2.0791

>  <SCORE.INTER.REPUL>  (14) 
0.00224215

>  <SCORE.INTER.ROT>  (14) 
4

>  <SCORE.INTER.VDW>  (14) 
-18.6563

>  <SCORE.INTER.norm>  (14) 
-0.77686

>  <SCORE.INTRA>  (14) 
-3.22615

>  <SCORE.INTRA.DIHEDRAL>  (14) 
-6.55517

>  <SCORE.INTRA.DIHEDRAL.0>  (14) 
10.6104

>  <SCORE.INTRA.POLAR>  (14) 
0

>  <SCORE.INTRA.POLAR.0>  (14) 
0

>  <SCORE.INTRA.REPUL>  (14) 
0

>  <SCORE.INTRA.REPUL.0>  (14) 
0

>  <SCORE.INTRA.VDW>  (14) 
0.0514386

>  <SCORE.INTRA.VDW.0>  (14) 
-1.96818

>  <SCORE.INTRA.norm>  (14) 
-0.153626

>  <SCORE.RESTR>  (14) 
0

>  <SCORE.RESTR.CAVITY>  (14) 
0

>  <SCORE.RESTR.norm>  (14) 
0

>  <SCORE.SYSTEM>  (14) 
-0.0247694

>  <SCORE.SYSTEM.CONST>  (14) 
0

>  <SCORE.SYSTEM.DIHEDRAL>  (14) 
0.272985

>  <SCORE.SYSTEM.VDW>  (14) 
-0.161262

>  <SCORE.SYSTEM.norm>  (14) 
-0.0011795

>  <SCORE.heavy>  (14) 
21

>  <SCORE.norm>  (14) 
-0.931665

>  <Predicted_Rank>  (14) 
14.0

$$$$
7lng_h
     RDKit          3D

 24 26  0  0  0  0  0  0  0  0999 V2000
   15.1761   11.4034    2.6295 P   0  0  1  0  0  0  0  0  0  0  0  0
   15.9433   12.0129    1.5162 O   0  0  0  0  0  0  0  0  0  0  0  0
   15.8234   10.4688    3.5851 O   0  0  0  0  0  0  0  0  0  0  0  0
   14.4055   14.5118    5.0091 C   0  0  0  0  0  0  0  0  0  0  0  0
   14.0536   13.6429    6.0925 O   0  0  0  0  0  0  0  0  0  0  0  0
   15.3383   13.5992    4.2218 C   0  0  2  0  0  0  0  0  0  0  0  0
   14.5406   12.5694    3.5580 O   0  0  0  0  0  0  0  0  0  0  0  0
   16.1831   12.9313    5.2606 C   0  0  1  0  0  0  0  0  0  0  0  0
   17.2801   13.7600    5.7492 O   0  0  0  0  0  0  0  0  0  0  0  0
   15.1398   12.6982    6.3443 C   0  0  2  0  0  0  0  0  0  0  0  0
   17.1916    8.1734    7.3272 N   0  0  0  0  0  0  0  0  0  0  0  0
   17.7235    9.4817    7.4658 C   0  0  0  0  0  0  0  0  0  0  0  0
   18.9720    9.6720    7.9173 N   0  0  0  0  0  0  0  0  0  0  0  0
   16.9447   10.5349    7.1317 N   0  0  0  0  0  0  0  0  0  0  0  0
   15.6925   10.3378    6.6756 C   0  0  0  0  0  0  0  0  0  0  0  0
   15.1498    9.1054    6.5415 C   0  0  0  0  0  0  0  0  0  0  0  0
   15.8628    8.0148    6.8487 C   0  0  0  0  0  0  0  0  0  0  0  0
   15.3858    6.8776    6.7295 O   0  0  0  0  0  0  0  0  0  0  0  0
   13.9093    9.2508    6.0683 N   0  0  0  0  0  0  0  0  0  0  0  0
   13.6782   10.5511    5.9202 C   0  0  0  0  0  0  0  0  0  0  0  0
   14.7795   11.2298    6.3093 N   0  0  0  0  0  0  0  0  0  0  0  0
   17.7813   13.2725    6.4072 H   0  0  0  0  0  0  0  0  0  0  0  0
   19.2694   10.5924    8.2076 H   0  0  0  0  0  0  0  0  0  0  0  0
   19.6146    8.8944    7.9670 H   0  0  0  0  0  0  0  0  0  0  0  0
  1  2  1  6
  1  3  2  0
  1  7  1  0
  4  5  1  0
  4  6  1  0
  5 10  1  0
  6  7  1  1
  6  8  1  0
  8  9  1  1
  8 10  1  0
  9 22  1  0
 10 21  1  6
 11 12  1  0
 11 17  1  0
 12 13  1  0
 12 14  2  0
 13 23  1  0
 13 24  1  0
 14 15  1  0
 15 16  2  0
 15 21  1  0
 16 17  1  0
 16 19  1  0
 17 18  2  0
 19 20  2  0
 20 21  1  0
M  CHG  1   2  -1
M  END
>  <CHROM.0>  (15) 
-62.28982378

>  <CHROM.1>  (15) 
-57.84223325,-179.66749074,-179.79155426,-172.65243158,-166.28453496,15.67520266
11.06299703,5.44364393,2.15402385,-1.08774340,-0.12736336

>  <Name>  (15) 
7lng_h

>  <RI>  (15) 
8.5107e+06

>  <Rbt.Current_Directory>  (15) 
/home/jta30/NA_complexes/7lng

>  <Rbt.Executable>  (15) 
rbdock ($Id: //depot/dev/client3/rdock/2013.1/src/exe/rbdock.cxx#4 $)

>  <Rbt.Library>  (15) 
libRbt.so (2013.1, Build901 2013/11/27)

>  <Rbt.Parameter_File>  (15) 
/software/dev_tools/swtree/cs400_centos7.2_pe2016-08/rdock/2013.1/centos7.2_conda/build/data/scripts/dock.prm

>  <Rbt.Receptor>  (15) 
7lng.prm

>  <SCORE>  (15) 
-18.0795

>  <SCORE.INTER>  (15) 
-12.2846

>  <SCORE.INTER.CONST>  (15) 
1

>  <SCORE.INTER.POLAR>  (15) 
-1.85359

>  <SCORE.INTER.REPUL>  (15) 
0

>  <SCORE.INTER.ROT>  (15) 
4

>  <SCORE.INTER.VDW>  (15) 
-15.3824

>  <SCORE.INTER.norm>  (15) 
-0.58498

>  <SCORE.INTRA>  (15) 
-5.77093

>  <SCORE.INTRA.DIHEDRAL>  (15) 
-8.20186

>  <SCORE.INTRA.DIHEDRAL.0>  (15) 
10.6104

>  <SCORE.INTRA.POLAR>  (15) 
0

>  <SCORE.INTRA.POLAR.0>  (15) 
0

>  <SCORE.INTRA.REPUL>  (15) 
0

>  <SCORE.INTRA.REPUL.0>  (15) 
0

>  <SCORE.INTRA.VDW>  (15) 
-1.66999

>  <SCORE.INTRA.VDW.0>  (15) 
-1.96818

>  <SCORE.INTRA.norm>  (15) 
-0.274806

>  <SCORE.RESTR>  (15) 
0

>  <SCORE.RESTR.CAVITY>  (15) 
0

>  <SCORE.RESTR.norm>  (15) 
0

>  <SCORE.SYSTEM>  (15) 
-0.0240519

>  <SCORE.SYSTEM.CONST>  (15) 
0

>  <SCORE.SYSTEM.DIHEDRAL>  (15) 
0.293619

>  <SCORE.SYSTEM.VDW>  (15) 
-0.170861

>  <SCORE.SYSTEM.norm>  (15) 
-0.00114533

>  <SCORE.heavy>  (15) 
21

>  <SCORE.norm>  (15) 
-0.860931

>  <Predicted_Rank>  (15) 
15.0

$$$$
7lng_h
     RDKit          3D

 24 26  0  0  0  0  0  0  0  0999 V2000
   13.2974   11.9888    2.9495 P   0  0  1  0  0  0  0  0  0  0  0  0
   13.1873   12.8110    1.7200 O   0  0  0  0  0  0  0  0  0  0  0  0
   14.4307   11.0490    3.1442 O   0  0  0  0  0  0  0  0  0  0  0  0
   14.0536   14.7028    5.7729 C   0  0  0  0  0  0  0  0  0  0  0  0
   14.2619   13.7034    6.7781 O   0  0  0  0  0  0  0  0  0  0  0  0
   14.4069   13.9069    4.5221 C   0  0  2  0  0  0  0  0  0  0  0  0
   13.3323   12.9535    4.2508 O   0  0  0  0  0  0  0  0  0  0  0  0
   15.6295   13.1305    4.8980 C   0  0  1  0  0  0  0  0  0  0  0  0
   16.8616   13.9101    4.8441 O   0  0  0  0  0  0  0  0  0  0  0  0
   15.2760   12.7516    6.3293 C   0  0  2  0  0  0  0  0  0  0  0  0
   17.2034    8.1911    7.3958 N   0  0  0  0  0  0  0  0  0  0  0  0
   17.7703    9.4868    7.5120 C   0  0  0  0  0  0  0  0  0  0  0  0
   19.0229    9.6512    7.9622 N   0  0  0  0  0  0  0  0  0  0  0  0
   17.0207   10.5545    7.1581 N   0  0  0  0  0  0  0  0  0  0  0  0
   15.7642   10.3833    6.7034 C   0  0  0  0  0  0  0  0  0  0  0  0
   15.1884    9.1639    6.5902 C   0  0  0  0  0  0  0  0  0  0  0  0
   15.8713    8.0600    6.9179 C   0  0  0  0  0  0  0  0  0  0  0  0
   15.3638    6.9342    6.8180 O   0  0  0  0  0  0  0  0  0  0  0  0
   13.9529    9.3343    6.1124 N   0  0  0  0  0  0  0  0  0  0  0  0
   13.7573   10.6376    5.9409 C   0  0  0  0  0  0  0  0  0  0  0  0
   14.8761   11.2930    6.3197 N   0  0  0  0  0  0  0  0  0  0  0  0
   17.6037   13.3538    5.0924 H   0  0  0  0  0  0  0  0  0  0  0  0
   19.3123   10.5437    8.3360 H   0  0  0  0  0  0  0  0  0  0  0  0
   19.6767    8.8821    7.9275 H   0  0  0  0  0  0  0  0  0  0  0  0
  1  2  1  6
  1  3  2  0
  1  7  1  0
  4  5  1  0
  4  6  1  0
  5 10  1  0
  6  7  1  1
  6  8  1  0
  8  9  1  1
  8 10  1  0
  9 22  1  0
 10 21  1  6
 11 12  1  0
 11 17  1  0
 12 13  1  0
 12 14  2  0
 13 23  1  0
 13 24  1  0
 14 15  1  0
 15 16  2  0
 15 21  1  0
 16 17  1  0
 16 19  1  0
 17 18  2  0
 19 20  2  0
 20 21  1  0
M  CHG  1   2  -1
M  END
>  <CHROM.0>  (16) 
-177.59141597

>  <CHROM.1>  (16) 
-64.33630304,176.04591605,-179.79547308,-140.65710925,-159.25093428,15.15362312
11.27303497,5.53576355,2.28620132,-0.77333641,-0.13843005

>  <Name>  (16) 
7lng_h

>  <RI>  (16) 
8.5107e+06

>  <Rbt.Current_Directory>  (16) 
/home/jta30/NA_complexes/7lng

>  <Rbt.Executable>  (16) 
rbdock ($Id: //depot/dev/client3/rdock/2013.1/src/exe/rbdock.cxx#4 $)

>  <Rbt.Library>  (16) 
libRbt.so (2013.1, Build901 2013/11/27)

>  <Rbt.Parameter_File>  (16) 
/software/dev_tools/swtree/cs400_centos7.2_pe2016-08/rdock/2013.1/centos7.2_conda/build/data/scripts/dock.prm

>  <Rbt.Receptor>  (16) 
7lng.prm

>  <SCORE>  (16) 
-18.7295

>  <SCORE.INTER>  (16) 
-13.4295

>  <SCORE.INTER.CONST>  (16) 
1

>  <SCORE.INTER.POLAR>  (16) 
-1.85359

>  <SCORE.INTER.REPUL>  (16) 
0

>  <SCORE.INTER.ROT>  (16) 
4

>  <SCORE.INTER.VDW>  (16) 
-16.5273

>  <SCORE.INTER.norm>  (16) 
-0.639502

>  <SCORE.INTRA>  (16) 
-5.25582

>  <SCORE.INTRA.DIHEDRAL>  (16) 
-8.22729

>  <SCORE.INTRA.DIHEDRAL.0>  (16) 
10.6104

>  <SCORE.INTRA.POLAR>  (16) 
0

>  <SCORE.INTRA.POLAR.0>  (16) 
0

>  <SCORE.INTRA.REPUL>  (16) 
0

>  <SCORE.INTRA.REPUL.0>  (16) 
0

>  <SCORE.INTRA.VDW>  (16) 
-1.14217

>  <SCORE.INTRA.VDW.0>  (16) 
-1.96818

>  <SCORE.INTRA.norm>  (16) 
-0.250277

>  <SCORE.RESTR>  (16) 
0

>  <SCORE.RESTR.CAVITY>  (16) 
0

>  <SCORE.RESTR.norm>  (16) 
0

>  <SCORE.SYSTEM>  (16) 
-0.0441587

>  <SCORE.SYSTEM.CONST>  (16) 
0

>  <SCORE.SYSTEM.DIHEDRAL>  (16) 
0.296159

>  <SCORE.SYSTEM.VDW>  (16) 
-0.192238

>  <SCORE.SYSTEM.norm>  (16) 
-0.0021028

>  <SCORE.heavy>  (16) 
21

>  <SCORE.norm>  (16) 
-0.891882

>  <Predicted_Rank>  (16) 
16.0

$$$$
7lng_h
     RDKit          3D

 24 26  0  0  0  0  0  0  0  0999 V2000
   17.7609    5.9855    4.1696 P   0  0  1  0  0  0  0  0  0  0  0  0
   19.0794    5.9296    4.8465 O   0  0  0  0  0  0  0  0  0  0  0  0
   17.3400    4.9223    3.2220 O   0  0  0  0  0  0  0  0  0  0  0  0
   14.3079    5.7140    6.0693 C   0  0  0  0  0  0  0  0  0  0  0  0
   14.5553    6.6827    7.0955 O   0  0  0  0  0  0  0  0  0  0  0  0
   15.1746    6.2781    4.9497 C   0  0  2  0  0  0  0  0  0  0  0  0
   16.5798    6.0431    5.2774 O   0  0  0  0  0  0  0  0  0  0  0  0
   14.9318    7.7541    4.9875 C   0  0  1  0  0  0  0  0  0  0  0  0
   13.6909    8.1634    4.3383 O   0  0  0  0  0  0  0  0  0  0  0  0
   14.8691    7.9762    6.4922 C   0  0  2  0  0  0  0  0  0  0  0  0
   16.8538   12.5567    7.3470 N   0  0  0  0  0  0  0  0  0  0  0  0
   15.5379   12.1705    6.9823 C   0  0  0  0  0  0  0  0  0  0  0  0
   14.5777   13.0888    6.7994 N   0  0  0  0  0  0  0  0  0  0  0  0
   15.2713   10.8551    6.8218 N   0  0  0  0  0  0  0  0  0  0  0  0
   16.2404    9.9370    7.0037 C   0  0  0  0  0  0  0  0  0  0  0  0
   17.5024   10.2688    7.3622 C   0  0  0  0  0  0  0  0  0  0  0  0
   17.8416   11.5523    7.5350 C   0  0  0  0  0  0  0  0  0  0  0  0
   18.9923   11.8773    7.8595 O   0  0  0  0  0  0  0  0  0  0  0  0
   18.2135    9.1422    7.4571 N   0  0  0  0  0  0  0  0  0  0  0  0
   17.4068    8.1248    7.1737 C   0  0  0  0  0  0  0  0  0  0  0  0
   16.1769    8.6143    6.9045 N   0  0  0  0  0  0  0  0  0  0  0  0
   13.7104    7.8999    3.4153 H   0  0  0  0  0  0  0  0  0  0  0  0
   14.0383   13.0925    5.9456 H   0  0  0  0  0  0  0  0  0  0  0  0
   14.3942   13.7767    7.5158 H   0  0  0  0  0  0  0  0  0  0  0  0
  1  2  1  1
  1  3  2  0
  1  7  1  0
  4  5  1  0
  4  6  1  0
  5 10  1  0
  6  7  1  1
  6  8  1  0
  8  9  1  6
  8 10  1  0
  9 22  1  0
 10 21  1  1
 11 12  1  0
 11 17  1  0
 12 13  1  0
 12 14  2  0
 13 23  1  0
 13 24  1  0
 14 15  1  0
 15 16  2  0
 15 21  1  0
 16 17  1  0
 16 19  1  0
 17 18  2  0
 19 20  2  0
 20 21  1  0
M  CHG  1   2  -1
M  END
>  <CHROM.0>  (17) 
60.08422858

>  <CHROM.1>  (17) 
171.81160086,156.87383974,-59.87981131,-145.46811404,127.74720871,16.39289261
8.52633743,6.05213515,-1.56243924,-0.06926480,0.42371611

>  <Name>  (17) 
7lng_h

>  <RI>  (17) 
8.5107e+06

>  <Rbt.Current_Directory>  (17) 
/home/jta30/NA_complexes/7lng

>  <Rbt.Executable>  (17) 
rbdock ($Id: //depot/dev/client3/rdock/2013.1/src/exe/rbdock.cxx#4 $)

>  <Rbt.Library>  (17) 
libRbt.so (2013.1, Build901 2013/11/27)

>  <Rbt.Parameter_File>  (17) 
/software/dev_tools/swtree/cs400_centos7.2_pe2016-08/rdock/2013.1/centos7.2_conda/build/data/scripts/dock.prm

>  <Rbt.Receptor>  (17) 
7lng.prm

>  <SCORE>  (17) 
-16.4977

>  <SCORE.INTER>  (17) 
-13.7418

>  <SCORE.INTER.CONST>  (17) 
1

>  <SCORE.INTER.POLAR>  (17) 
-1.57353

>  <SCORE.INTER.REPUL>  (17) 
0

>  <SCORE.INTER.ROT>  (17) 
4

>  <SCORE.INTER.VDW>  (17) 
-17.7918

>  <SCORE.INTER.norm>  (17) 
-0.654372

>  <SCORE.INTRA>  (17) 
-3.77731

>  <SCORE.INTRA.DIHEDRAL>  (17) 
-6.07343

>  <SCORE.INTRA.DIHEDRAL.0>  (17) 
10.6104

>  <SCORE.INTRA.POLAR>  (17) 
0

>  <SCORE.INTRA.POLAR.0>  (17) 
0

>  <SCORE.INTRA.REPUL>  (17) 
0

>  <SCORE.INTRA.REPUL.0>  (17) 
0

>  <SCORE.INTRA.VDW>  (17) 
-0.740594

>  <SCORE.INTRA.VDW.0>  (17) 
-1.96818

>  <SCORE.INTRA.norm>  (17) 
-0.179872

>  <SCORE.RESTR>  (17) 
0.433323

>  <SCORE.RESTR.CAVITY>  (17) 
0.433323

>  <SCORE.RESTR.norm>  (17) 
0.0206344

>  <SCORE.SYSTEM>  (17) 
0.588091

>  <SCORE.SYSTEM.CONST>  (17) 
0

>  <SCORE.SYSTEM.DIHEDRAL>  (17) 
0.269744

>  <SCORE.SYSTEM.VDW>  (17) 
0.45322

>  <SCORE.SYSTEM.norm>  (17) 
0.0280044

>  <SCORE.heavy>  (17) 
21

>  <SCORE.norm>  (17) 
-0.785605

>  <Predicted_Rank>  (17) 
17.0

$$$$
7lng_h
     RDKit          3D

 24 26  0  0  0  0  0  0  0  0999 V2000
   15.7939    8.5483    6.6652 P   0  0  1  0  0  0  0  0  0  0  0  0
   15.7129    7.2260    7.3320 O   0  0  0  0  0  0  0  0  0  0  0  0
   14.6430    9.4867    6.6813 O   0  0  0  0  0  0  0  0  0  0  0  0
   18.6896    9.4565    5.5127 C   0  0  0  0  0  0  0  0  0  0  0  0
   18.6563   10.8878    5.5678 O   0  0  0  0  0  0  0  0  0  0  0  0
   18.4313    9.1229    6.9772 C   0  0  2  0  0  0  0  0  0  0  0  0
   17.0281    9.3972    7.2827 O   0  0  0  0  0  0  0  0  0  0  0  0
   19.2700   10.0971    7.7430 C   0  0  1  0  0  0  0  0  0  0  0  0
   20.6779    9.7237    7.8260 O   0  0  0  0  0  0  0  0  0  0  0  0
   19.0767   11.3437    6.8911 C   0  0  2  0  0  0  0  0  0  0  0  0
   14.2764   12.9389    6.6417 N   0  0  0  0  0  0  0  0  0  0  0  0
   14.9935   12.0275    5.8239 C   0  0  0  0  0  0  0  0  0  0  0  0
   14.4038   11.4334    4.7761 N   0  0  0  0  0  0  0  0  0  0  0  0
   16.2865   11.7703    6.1226 N   0  0  0  0  0  0  0  0  0  0  0  0
   16.8748   12.3724    7.1744 C   0  0  0  0  0  0  0  0  0  0  0  0
   16.2183   13.2378    7.9815 C   0  0  0  0  0  0  0  0  0  0  0  0
   14.9368   13.5445    7.7450 C   0  0  0  0  0  0  0  0  0  0  0  0
   14.3190   14.3371    8.4695 O   0  0  0  0  0  0  0  0  0  0  0  0
   17.0730   13.6568    8.9183 N   0  0  0  0  0  0  0  0  0  0  0  0
   18.2389   13.0552    8.7063 C   0  0  0  0  0  0  0  0  0  0  0  0
   18.1153   12.2463    7.6315 N   0  0  0  0  0  0  0  0  0  0  0  0
   20.7537    8.8386    8.1901 H   0  0  0  0  0  0  0  0  0  0  0  0
   14.0853   10.4779    4.8505 H   0  0  0  0  0  0  0  0  0  0  0  0
   14.2781   11.9419    3.9125 H   0  0  0  0  0  0  0  0  0  0  0  0
  1  2  1  1
  1  3  2  0
  1  7  1  0
  4  5  1  0
  4  6  1  0
  5 10  1  0
  6  7  1  1
  6  8  1  0
  8  9  1  6
  8 10  1  0
  9 22  1  0
 10 21  1  1
 11 12  1  0
 11 17  1  0
 12 13  1  0
 12 14  2  0
 13 23  1  0
 13 24  1  0
 14 15  1  0
 15 16  2  0
 15 21  1  0
 16 17  1  0
 16 19  1  0
 17 18  2  0
 19 20  2  0
 20 21  1  0
M  CHG  1   2  -1
M  END
>  <CHROM.0>  (18) 
-166.64948368

>  <CHROM.1>  (18) 
74.65765197,67.58098341,-54.85635001,12.27965489,-101.59925192,16.78128799
10.99843647,7.02442845,0.92869835,0.20940199,-2.85834450

>  <Name>  (18) 
7lng_h

>  <RI>  (18) 
8.5107e+06

>  <Rbt.Current_Directory>  (18) 
/home/jta30/NA_complexes/7lng

>  <Rbt.Executable>  (18) 
rbdock ($Id: //depot/dev/client3/rdock/2013.1/src/exe/rbdock.cxx#4 $)

>  <Rbt.Library>  (18) 
libRbt.so (2013.1, Build901 2013/11/27)

>  <Rbt.Parameter_File>  (18) 
/software/dev_tools/swtree/cs400_centos7.2_pe2016-08/rdock/2013.1/centos7.2_conda/build/data/scripts/dock.prm

>  <Rbt.Receptor>  (18) 
7lng.prm

>  <SCORE>  (18) 
-20.8691

>  <SCORE.INTER>  (18) 
-15.1068

>  <SCORE.INTER.CONST>  (18) 
1

>  <SCORE.INTER.POLAR>  (18) 
-2.54086

>  <SCORE.INTER.REPUL>  (18) 
0

>  <SCORE.INTER.ROT>  (18) 
4

>  <SCORE.INTER.VDW>  (18) 
-15.8679

>  <SCORE.INTER.norm>  (18) 
-0.719371

>  <SCORE.INTRA>  (18) 
-6.03347

>  <SCORE.INTRA.DIHEDRAL>  (18) 
-7.37987

>  <SCORE.INTRA.DIHEDRAL.0>  (18) 
10.6104

>  <SCORE.INTRA.POLAR>  (18) 
-0.348482

>  <SCORE.INTRA.POLAR.0>  (18) 
0

>  <SCORE.INTRA.REPUL>  (18) 
0

>  <SCORE.INTRA.REPUL.0>  (18) 
0

>  <SCORE.INTRA.VDW>  (18) 
-1.1587

>  <SCORE.INTRA.VDW.0>  (18) 
-1.96818

>  <SCORE.INTRA.norm>  (18) 
-0.287308

>  <SCORE.RESTR>  (18) 
0

>  <SCORE.RESTR.CAVITY>  (18) 
0

>  <SCORE.RESTR.norm>  (18) 
0

>  <SCORE.SYSTEM>  (18) 
0.271138

>  <SCORE.SYSTEM.CONST>  (18) 
0

>  <SCORE.SYSTEM.DIHEDRAL>  (18) 
1.05078

>  <SCORE.SYSTEM.VDW>  (18) 
-0.25425

>  <SCORE.SYSTEM.norm>  (18) 
0.0129114

>  <SCORE.heavy>  (18) 
21

>  <SCORE.norm>  (18) 
-0.993768

>  <Predicted_Rank>  (18) 
18.0

$$$$
7lng_h
     RDKit          3D

 24 26  0  0  0  0  0  0  0  0999 V2000
   12.9504   11.9460    3.1059 P   0  0  1  0  0  0  0  0  0  0  0  0
   11.8622   10.9709    3.3602 O   0  0  0  0  0  0  0  0  0  0  0  0
   12.8847   12.8858    1.9578 O   0  0  0  0  0  0  0  0  0  0  0  0
   14.0539   14.6311    5.8406 C   0  0  0  0  0  0  0  0  0  0  0  0
   14.3691   13.6257    6.8114 O   0  0  0  0  0  0  0  0  0  0  0  0
   14.2554   13.8386    4.5545 C   0  0  2  0  0  0  0  0  0  0  0  0
   13.1498   12.8937    4.4049 O   0  0  0  0  0  0  0  0  0  0  0  0
   15.5075   13.0522    4.7844 C   0  0  1  0  0  0  0  0  0  0  0  0
   16.7307   13.8238    4.5921 O   0  0  0  0  0  0  0  0  0  0  0  0
   15.3180   12.6691    6.2454 C   0  0  2  0  0  0  0  0  0  0  0  0
   17.2220    8.1268    7.4253 N   0  0  0  0  0  0  0  0  0  0  0  0
   17.7973    9.4216    7.5047 C   0  0  0  0  0  0  0  0  0  0  0  0
   19.0528    9.5901    7.9453 N   0  0  0  0  0  0  0  0  0  0  0  0
   17.0528   10.4841    7.1254 N   0  0  0  0  0  0  0  0  0  0  0  0
   15.7933   10.3087    6.6805 C   0  0  0  0  0  0  0  0  0  0  0  0
   15.2097    9.0903    6.6022 C   0  0  0  0  0  0  0  0  0  0  0  0
   15.8871    7.9913    6.9565 C   0  0  0  0  0  0  0  0  0  0  0  0
   15.3724    6.8664    6.8887 O   0  0  0  0  0  0  0  0  0  0  0  0
   13.9733    9.2556    6.1250 N   0  0  0  0  0  0  0  0  0  0  0  0
   13.7848   10.5550    5.9196 C   0  0  0  0  0  0  0  0  0  0  0  0
   14.9092   11.2134    6.2763 N   0  0  0  0  0  0  0  0  0  0  0  0
   16.7729   14.1367    3.6854 H   0  0  0  0  0  0  0  0  0  0  0  0
   19.6695    8.7949    8.0300 H   0  0  0  0  0  0  0  0  0  0  0  0
   19.3813   10.5127    8.1922 H   0  0  0  0  0  0  0  0  0  0  0  0
  1  2  1  1
  1  3  2  0
  1  7  1  0
  4  5  1  0
  4  6  1  0
  5 10  1  0
  6  7  1  1
  6  8  1  0
  8  9  1  1
  8 10  1  0
  9 22  1  0
 10 21  1  6
 11 12  1  0
 11 17  1  0
 12 13  1  0
 12 14  2  0
 13 23  1  0
 13 24  1  0
 14 15  1  0
 15 16  2  0
 15 21  1  0
 16 17  1  0
 16 19  1  0
 17 18  2  0
 19 20  2  0
 20 21  1  0
M  CHG  1   2  -1
M  END
>  <CHROM.0>  (19) 
-176.65317111

>  <CHROM.1>  (19) 
171.47575247,175.40403595,-61.29726487,-134.05127506,13.61485540,14.96107115
11.21330012,5.56393483,2.31129066,-0.63645428,-0.20678761

>  <Name>  (19) 
7lng_h

>  <RI>  (19) 
8.5107e+06

>  <Rbt.Current_Directory>  (19) 
/home/jta30/NA_complexes/7lng

>  <Rbt.Executable>  (19) 
rbdock ($Id: //depot/dev/client3/rdock/2013.1/src/exe/rbdock.cxx#4 $)

>  <Rbt.Library>  (19) 
libRbt.so (2013.1, Build901 2013/11/27)

>  <Rbt.Parameter_File>  (19) 
/software/dev_tools/swtree/cs400_centos7.2_pe2016-08/rdock/2013.1/centos7.2_conda/build/data/scripts/dock.prm

>  <Rbt.Receptor>  (19) 
7lng.prm

>  <SCORE>  (19) 
-18.6766

>  <SCORE.INTER>  (19) 
-13.8231

>  <SCORE.INTER.CONST>  (19) 
1

>  <SCORE.INTER.POLAR>  (19) 
-1.85359

>  <SCORE.INTER.REPUL>  (19) 
0.00194774

>  <SCORE.INTER.ROT>  (19) 
4

>  <SCORE.INTER.VDW>  (19) 
-16.9307

>  <SCORE.INTER.norm>  (19) 
-0.658245

>  <SCORE.INTRA>  (19) 
-4.8145

>  <SCORE.INTRA.DIHEDRAL>  (19) 
-8.16644

>  <SCORE.INTRA.DIHEDRAL.0>  (19) 
10.6104

>  <SCORE.INTRA.POLAR>  (19) 
0

>  <SCORE.INTRA.POLAR.0>  (19) 
0

>  <SCORE.INTRA.REPUL>  (19) 
0

>  <SCORE.INTRA.REPUL.0>  (19) 
0

>  <SCORE.INTRA.VDW>  (19) 
-0.73128

>  <SCORE.INTRA.VDW.0>  (19) 
-1.96818

>  <SCORE.INTRA.norm>  (19) 
-0.229262

>  <SCORE.RESTR>  (19) 
0

>  <SCORE.RESTR.CAVITY>  (19) 
0

>  <SCORE.RESTR.norm>  (19) 
0

>  <SCORE.SYSTEM>  (19) 
-0.0389768

>  <SCORE.SYSTEM.CONST>  (19) 
0

>  <SCORE.SYSTEM.DIHEDRAL>  (19) 
0.320715

>  <SCORE.SYSTEM.VDW>  (19) 
-0.199334

>  <SCORE.SYSTEM.norm>  (19) 
-0.00185604

>  <SCORE.heavy>  (19) 
21

>  <SCORE.norm>  (19) 
-0.889363

>  <Predicted_Rank>  (19) 
19.0

$$$$
7lng_h
     RDKit          3D

 24 26  0  0  0  0  0  0  0  0999 V2000
   15.7057    8.5833    6.7735 P   0  0  1  0  0  0  0  0  0  0  0  0
   15.6127    8.8641    5.3202 O   0  0  0  0  0  0  0  0  0  0  0  0
   15.8324    7.1926    7.2790 O   0  0  0  0  0  0  0  0  0  0  0  0
   18.5627    9.3439    5.5634 C   0  0  0  0  0  0  0  0  0  0  0  0
   18.5382   10.7764    5.5600 O   0  0  0  0  0  0  0  0  0  0  0  0
   18.3641    9.0731    7.0500 C   0  0  2  0  0  0  0  0  0  0  0  0
   16.9761    9.3686    7.4017 O   0  0  0  0  0  0  0  0  0  0  0  0
   19.2384   10.0729    7.7390 C   0  0  1  0  0  0  0  0  0  0  0  0
   20.6469    9.6945    7.7792 O   0  0  0  0  0  0  0  0  0  0  0  0
   19.0155   11.2843    6.8445 C   0  0  2  0  0  0  0  0  0  0  0  0
   14.2213   12.9118    6.7165 N   0  0  0  0  0  0  0  0  0  0  0  0
   14.8997   11.9637    5.9075 C   0  0  0  0  0  0  0  0  0  0  0  0
   14.2659   11.3356    4.9063 N   0  0  0  0  0  0  0  0  0  0  0  0
   16.2012   11.7064    6.1667 N   0  0  0  0  0  0  0  0  0  0  0  0
   16.8338   12.3426    7.1716 C   0  0  0  0  0  0  0  0  0  0  0  0
   16.2151   13.2438    7.9693 C   0  0  0  0  0  0  0  0  0  0  0  0
   14.9279   13.5528    7.7700 C   0  0  0  0  0  0  0  0  0  0  0  0
   14.3441   14.3778    8.4866 O   0  0  0  0  0  0  0  0  0  0  0  0
   17.1081   13.6904    8.8564 N   0  0  0  0  0  0  0  0  0  0  0  0
   18.2605   13.0708    8.6236 C   0  0  0  0  0  0  0  0  0  0  0  0
   18.0898   12.2229    7.5858 N   0  0  0  0  0  0  0  0  0  0  0  0
   20.7326    8.8194    8.1646 H   0  0  0  0  0  0  0  0  0  0  0  0
   13.5498   11.8166    4.3812 H   0  0  0  0  0  0  0  0  0  0  0  0
   14.5052   10.3813    4.6775 H   0  0  0  0  0  0  0  0  0  0  0  0
  1  2  1  6
  1  3  2  0
  1  7  1  0
  4  5  1  0
  4  6  1  0
  5 10  1  0
  6  7  1  1
  6  8  1  0
  8  9  1  6
  8 10  1  0
  9 22  1  0
 10 21  1  1
 11 12  1  0
 11 17  1  0
 12 13  1  0
 12 14  2  0
 13 23  1  0
 13 24  1  0
 14 15  1  0
 15 16  2  0
 15 21  1  0
 16 17  1  0
 16 19  1  0
 17 18  2  0
 19 20  2  0
 20 21  1  0
M  CHG  1   2  -1
M  END
>  <CHROM.0>  (20) 
-167.24252356

>  <CHROM.1>  (20) 
-65.56442372,62.17124161,-54.02820212,11.94963431,33.88320633,16.78901187
10.94002885,6.97787921,1.03269323,0.25597086,-2.81315131

>  <Name>  (20) 
7lng_h

>  <RI>  (20) 
8.5107e+06

>  <Rbt.Current_Directory>  (20) 
/home/jta30/NA_complexes/7lng

>  <Rbt.Executable>  (20) 
rbdock ($Id: //depot/dev/client3/rdock/2013.1/src/exe/rbdock.cxx#4 $)

>  <Rbt.Library>  (20) 
libRbt.so (2013.1, Build901 2013/11/27)

>  <Rbt.Parameter_File>  (20) 
/software/dev_tools/swtree/cs400_centos7.2_pe2016-08/rdock/2013.1/centos7.2_conda/build/data/scripts/dock.prm

>  <Rbt.Receptor>  (20) 
7lng.prm

>  <SCORE>  (20) 
-23.4845

>  <SCORE.INTER>  (20) 
-14.815

>  <SCORE.INTER.CONST>  (20) 
1

>  <SCORE.INTER.POLAR>  (20) 
-2.53022

>  <SCORE.INTER.REPUL>  (20) 
0

>  <SCORE.INTER.ROT>  (20) 
4

>  <SCORE.INTER.VDW>  (20) 
-15.6122

>  <SCORE.INTER.norm>  (20) 
-0.705476

>  <SCORE.INTRA>  (20) 
-8.91038

>  <SCORE.INTRA.DIHEDRAL>  (20) 
-7.97952

>  <SCORE.INTRA.DIHEDRAL.0>  (20) 
10.6104

>  <SCORE.INTRA.POLAR>  (20) 
-1.02809

>  <SCORE.INTRA.POLAR.0>  (20) 
0

>  <SCORE.INTRA.REPUL>  (20) 
0

>  <SCORE.INTRA.REPUL.0>  (20) 
0

>  <SCORE.INTRA.VDW>  (20) 
-1.42511

>  <SCORE.INTRA.VDW.0>  (20) 
-1.96818

>  <SCORE.INTRA.norm>  (20) 
-0.424304

>  <SCORE.RESTR>  (20) 
0

>  <SCORE.RESTR.CAVITY>  (20) 
0

>  <SCORE.RESTR.norm>  (20) 
0

>  <SCORE.SYSTEM>  (20) 
0.240837

>  <SCORE.SYSTEM.CONST>  (20) 
0

>  <SCORE.SYSTEM.DIHEDRAL>  (20) 
0.985475

>  <SCORE.SYSTEM.VDW>  (20) 
-0.2519

>  <SCORE.SYSTEM.norm>  (20) 
0.0114684

>  <SCORE.heavy>  (20) 
21

>  <SCORE.norm>  (20) 
-1.11831

>  <Predicted_Rank>  (20) 
20.0

$$$$
7lng_h
     RDKit          3D

 24 26  0  0  0  0  0  0  0  0999 V2000
   13.6092   12.6247    2.8083 P   0  0  1  0  0  0  0  0  0  0  0  0
   14.5365   11.4759    2.9492 O   0  0  0  0  0  0  0  0  0  0  0  0
   12.1756   12.4171    2.4811 O   0  0  0  0  0  0  0  0  0  0  0  0
   14.3975   14.8556    6.0208 C   0  0  0  0  0  0  0  0  0  0  0  0
   14.2087   13.7362    6.8949 O   0  0  0  0  0  0  0  0  0  0  0  0
   14.7875   14.1337    4.7365 C   0  0  2  0  0  0  0  0  0  0  0  0
   13.5994   13.4904    4.1779 O   0  0  0  0  0  0  0  0  0  0  0  0
   15.7316   13.0591    5.1757 C   0  0  1  0  0  0  0  0  0  0  0  0
   17.0911   13.5316    5.4146 O   0  0  0  0  0  0  0  0  0  0  0  0
   15.0598   12.6263    6.4713 C   0  0  2  0  0  0  0  0  0  0  0  0
   15.9132    7.6458    6.8118 N   0  0  0  0  0  0  0  0  0  0  0  0
   16.7274    8.7518    7.1690 C   0  0  0  0  0  0  0  0  0  0  0  0
   17.9506    8.5662    7.6866 N   0  0  0  0  0  0  0  0  0  0  0  0
   16.2442    9.9993    6.9756 N   0  0  0  0  0  0  0  0  0  0  0  0
   15.0160   10.1800    6.4523 C   0  0  0  0  0  0  0  0  0  0  0  0
   14.2088    9.1488    6.1109 C   0  0  0  0  0  0  0  0  0  0  0  0
   14.6213    7.8852    6.2698 C   0  0  0  0  0  0  0  0  0  0  0  0
   13.8993    6.9272    5.9600 O   0  0  0  0  0  0  0  0  0  0  0  0
   13.0740    9.6576    5.6240 N   0  0  0  0  0  0  0  0  0  0  0  0
   13.1668   10.9825    5.6710 C   0  0  0  0  0  0  0  0  0  0  0  0
   14.3669   11.3102    6.1974 N   0  0  0  0  0  0  0  0  0  0  0  0
   17.4557   13.8837    4.5992 H   0  0  0  0  0  0  0  0  0  0  0  0
   18.5877    9.3455    7.7694 H   0  0  0  0  0  0  0  0  0  0  0  0
   18.2345    7.6468    7.9936 H   0  0  0  0  0  0  0  0  0  0  0  0
  1  2  1  1
  1  3  2  0
  1  7  1  0
  4  5  1  0
  4  6  1  0
  5 10  1  0
  6  7  1  1
  6  8  1  0
  8  9  1  1
  8 10  1  0
  9 22  1  0
 10 21  1  6
 11 12  1  0
 11 17  1  0
 12 13  1  0
 12 14  2  0
 13 23  1  0
 13 24  1  0
 14 15  1  0
 15 16  2  0
 15 21  1  0
 16 17  1  0
 16 19  1  0
 17 18  2  0
 19 20  2  0
 20 21  1  0
M  CHG  1   2  -1
M  END
>  <CHROM.0>  (21) 
-60.21699089

>  <CHROM.1>  (21) 
60.17235223,179.90648880,-61.79691770,-147.35968380,168.11247192,14.72571384
11.23642224,5.42224994,1.96756796,-0.75574673,-0.20281168

>  <Name>  (21) 
7lng_h

>  <RI>  (21) 
8.5107e+06

>  <Rbt.Current_Directory>  (21) 
/home/jta30/NA_complexes/7lng

>  <Rbt.Executable>  (21) 
rbdock ($Id: //depot/dev/client3/rdock/2013.1/src/exe/rbdock.cxx#4 $)

>  <Rbt.Library>  (21) 
libRbt.so (2013.1, Build901 2013/11/27)

>  <Rbt.Parameter_File>  (21) 
/software/dev_tools/swtree/cs400_centos7.2_pe2016-08/rdock/2013.1/centos7.2_conda/build/data/scripts/dock.prm

>  <Rbt.Receptor>  (21) 
7lng.prm

>  <SCORE>  (21) 
-16.2097

>  <SCORE.INTER>  (21) 
-10.7218

>  <SCORE.INTER.CONST>  (21) 
1

>  <SCORE.INTER.POLAR>  (21) 
-1.0198

>  <SCORE.INTER.REPUL>  (21) 
0.00556776

>  <SCORE.INTER.ROT>  (21) 
4

>  <SCORE.INTER.VDW>  (21) 
-16.6823

>  <SCORE.INTER.norm>  (21) 
-0.510562

>  <SCORE.INTRA>  (21) 
-5.46599

>  <SCORE.INTRA.DIHEDRAL>  (21) 
-8.26413

>  <SCORE.INTRA.DIHEDRAL.0>  (21) 
10.6104

>  <SCORE.INTRA.POLAR>  (21) 
0

>  <SCORE.INTRA.POLAR.0>  (21) 
0

>  <SCORE.INTRA.REPUL>  (21) 
0

>  <SCORE.INTRA.REPUL.0>  (21) 
0

>  <SCORE.INTRA.VDW>  (21) 
-1.33392

>  <SCORE.INTRA.VDW.0>  (21) 
-1.96818

>  <SCORE.INTRA.norm>  (21) 
-0.260285

>  <SCORE.RESTR>  (21) 
0

>  <SCORE.RESTR.CAVITY>  (21) 
0

>  <SCORE.RESTR.norm>  (21) 
0

>  <SCORE.SYSTEM>  (21) 
-0.0218928

>  <SCORE.SYSTEM.CONST>  (21) 
0

>  <SCORE.SYSTEM.DIHEDRAL>  (21) 
0.269926

>  <SCORE.SYSTEM.VDW>  (21) 
-0.156856

>  <SCORE.SYSTEM.norm>  (21) 
-0.00104252

>  <SCORE.heavy>  (21) 
21

>  <SCORE.norm>  (21) 
-0.77189

>  <Predicted_Rank>  (21) 
21.0

$$$$
7lng_h
     RDKit          3D

 24 26  0  0  0  0  0  0  0  0999 V2000
   15.6929    8.5720    6.8052 P   0  0  1  0  0  0  0  0  0  0  0  0
   15.5994    8.8205    5.3461 O   0  0  0  0  0  0  0  0  0  0  0  0
   15.8313    7.1938    7.3408 O   0  0  0  0  0  0  0  0  0  0  0  0
   18.5744    9.3214    5.6091 C   0  0  0  0  0  0  0  0  0  0  0  0
   18.5584   10.7538    5.5843 O   0  0  0  0  0  0  0  0  0  0  0  0
   18.3476    9.0737    7.0957 C   0  0  2  0  0  0  0  0  0  0  0  0
   16.9553    9.3822    7.4179 O   0  0  0  0  0  0  0  0  0  0  0  0
   19.2152   10.0787    7.7856 C   0  0  1  0  0  0  0  0  0  0  0  0
   20.6205    9.6930    7.8567 O   0  0  0  0  0  0  0  0  0  0  0  0
   19.0155   11.2779    6.8696 C   0  0  2  0  0  0  0  0  0  0  0  0
   14.2156   12.8815    6.6725 N   0  0  0  0  0  0  0  0  0  0  0  0
   14.9020   11.9145    5.8932 C   0  0  0  0  0  0  0  0  0  0  0  0
   14.2761   11.2567    4.9062 N   0  0  0  0  0  0  0  0  0  0  0  0
   16.2032   11.6697    6.1660 N   0  0  0  0  0  0  0  0  0  0  0  0
   16.8279   12.3357    7.1564 C   0  0  0  0  0  0  0  0  0  0  0  0
   16.2015   13.2558    7.9260 C   0  0  0  0  0  0  0  0  0  0  0  0
   14.9140   13.5539    7.7117 C   0  0  0  0  0  0  0  0  0  0  0  0
   14.3232   14.3958    8.4025 O   0  0  0  0  0  0  0  0  0  0  0  0
   17.0880   13.7301    8.8052 N   0  0  0  0  0  0  0  0  0  0  0  0
   18.2441   13.1091    8.5953 C   0  0  0  0  0  0  0  0  0  0  0  0
   18.0822   12.2326    7.5802 N   0  0  0  0  0  0  0  0  0  0  0  0
   20.6922    8.8112    8.2295 H   0  0  0  0  0  0  0  0  0  0  0  0
   14.5356   10.3050    4.6894 H   0  0  0  0  0  0  0  0  0  0  0  0
   13.5449   11.7133    4.3799 H   0  0  0  0  0  0  0  0  0  0  0  0
  1  2  1  6
  1  3  2  0
  1  7  1  0
  4  5  1  0
  4  6  1  0
  5 10  1  0
  6  7  1  6
  6  8  1  0
  8  9  1  6
  8 10  1  0
  9 22  1  0
 10 21  1  1
 11 12  1  0
 11 17  1  0
 12 13  1  0
 12 14  2  0
 13 23  1  0
 13 24  1  0
 14 15  1  0
 15 16  2  0
 15 21  1  0
 16 17  1  0
 16 19  1  0
 17 18  2  0
 19 20  2  0
 20 21  1  0
M  CHG  1   2  -1
M  END
>  <CHROM.0>  (22) 
-166.95548889

>  <CHROM.1>  (22) 
-66.87373942,63.66130060,-52.15607356,13.12080407,-147.62735775,16.78061385
10.93102260,6.98373970,1.03610073,0.26098307,-2.83031747

>  <Name>  (22) 
7lng_h

>  <RI>  (22) 
8.5107e+06

>  <Rbt.Current_Directory>  (22) 
/home/jta30/NA_complexes/7lng

>  <Rbt.Executable>  (22) 
rbdock ($Id: //depot/dev/client3/rdock/2013.1/src/exe/rbdock.cxx#4 $)

>  <Rbt.Library>  (22) 
libRbt.so (2013.1, Build901 2013/11/27)

>  <Rbt.Parameter_File>  (22) 
/software/dev_tools/swtree/cs400_centos7.2_pe2016-08/rdock/2013.1/centos7.2_conda/build/data/scripts/dock.prm

>  <Rbt.Receptor>  (22) 
7lng.prm

>  <SCORE>  (22) 
-23.4135

>  <SCORE.INTER>  (22) 
-14.7715

>  <SCORE.INTER.CONST>  (22) 
1

>  <SCORE.INTER.POLAR>  (22) 
-2.48843

>  <SCORE.INTER.REPUL>  (22) 
0.00385837

>  <SCORE.INTER.ROT>  (22) 
4

>  <SCORE.INTER.VDW>  (22) 
-15.7302

>  <SCORE.INTER.norm>  (22) 
-0.703406

>  <SCORE.INTRA>  (22) 
-8.89735

>  <SCORE.INTRA.DIHEDRAL>  (22) 
-7.81503

>  <SCORE.INTRA.DIHEDRAL.0>  (22) 
10.6104

>  <SCORE.INTRA.POLAR>  (22) 
-1.04451

>  <SCORE.INTRA.POLAR.0>  (22) 
0

>  <SCORE.INTRA.REPUL>  (22) 
0

>  <SCORE.INTRA.REPUL.0>  (22) 
0

>  <SCORE.INTRA.VDW>  (22) 
-1.43848

>  <SCORE.INTRA.VDW.0>  (22) 
-1.96818

>  <SCORE.INTRA.norm>  (22) 
-0.423683

>  <SCORE.RESTR>  (22) 
0

>  <SCORE.RESTR.CAVITY>  (22) 
0

>  <SCORE.RESTR.norm>  (22) 
0

>  <SCORE.SYSTEM>  (22) 
0.255336

>  <SCORE.SYSTEM.CONST>  (22) 
0

>  <SCORE.SYSTEM.DIHEDRAL>  (22) 
1.01677

>  <SCORE.SYSTEM.VDW>  (22) 
-0.25305

>  <SCORE.SYSTEM.norm>  (22) 
0.0121588

>  <SCORE.heavy>  (22) 
21

>  <SCORE.norm>  (22) 
-1.11493

>  <Predicted_Rank>  (22) 
22.0

$$$$
7lng_h
     RDKit          3D

 24 26  0  0  0  0  0  0  0  0999 V2000
   17.4197    5.8932    4.0964 P   0  0  1  0  0  0  0  0  0  0  0  0
   18.4939    5.5499    5.0597 O   0  0  0  0  0  0  0  0  0  0  0  0
   16.3903    4.8956    3.7086 O   0  0  0  0  0  0  0  0  0  0  0  0
   14.6099    6.1790    5.6743 C   0  0  0  0  0  0  0  0  0  0  0  0
   14.9693    6.8160    6.9063 O   0  0  0  0  0  0  0  0  0  0  0  0
   15.1168    7.2136    4.6765 C   0  0  2  0  0  0  0  0  0  0  0  0
   16.5776    7.1635    4.6466 O   0  0  0  0  0  0  0  0  0  0  0  0
   14.7113    8.5320    5.2564 C   0  0  1  0  0  0  0  0  0  0  0  0
   13.3131    8.8744    5.0191 O   0  0  0  0  0  0  0  0  0  0  0  0
   14.9740    8.2670    6.7322 C   0  0  2  0  0  0  0  0  0  0  0  0
   16.7495   12.9744    7.3136 N   0  0  0  0  0  0  0  0  0  0  0  0
   15.4500   12.5083    6.9852 C   0  0  0  0  0  0  0  0  0  0  0  0
   14.4464   13.3698    6.7630 N   0  0  0  0  0  0  0  0  0  0  0  0
   15.2439   11.1751    6.8997 N   0  0  0  0  0  0  0  0  0  0  0  0
   16.2564   10.3143    7.1207 C   0  0  0  0  0  0  0  0  0  0  0  0
   17.5045   10.7233    7.4465 C   0  0  0  0  0  0  0  0  0  0  0  0
   17.7848   12.0286    7.5453 C   0  0  0  0  0  0  0  0  0  0  0  0
   18.9217   12.4238    7.8387 O   0  0  0  0  0  0  0  0  0  0  0  0
   18.2682    9.6377    7.5949 N   0  0  0  0  0  0  0  0  0  0  0  0
   17.5077    8.5700    7.3765 C   0  0  0  0  0  0  0  0  0  0  0  0
   16.2539    8.9866    7.0946 N   0  0  0  0  0  0  0  0  0  0  0  0
   13.1247    9.7348    5.4013 H   0  0  0  0  0  0  0  0  0  0  0  0
   13.9349   13.3360    5.8929 H   0  0  0  0  0  0  0  0  0  0  0  0
   14.2022   14.0523    7.4663 H   0  0  0  0  0  0  0  0  0  0  0  0
  1  2  1  1
  1  3  2  0
  1  7  1  0
  4  5  1  0
  4  6  1  0
  5 10  1  0
  6  7  1  1
  6  8  1  0
  8  9  1  1
  8 10  1  0
  9 22  1  0
 10 21  1  6
 11 12  1  0
 11 17  1  0
 12 13  1  0
 12 14  2  0
 13 23  1  0
 13 24  1  0
 14 15  1  0
 15 16  2  0
 15 21  1  0
 16 17  1  0
 16 19  1  0
 17 18  2  0
 19 20  2  0
 20 21  1  0
M  CHG  1   2  -1
M  END
>  <CHROM.0>  (23) 
-62.38614592

>  <CHROM.1>  (23) 
-132.68900706,66.43100972,-178.96633235,-171.38280402,124.18864587,16.27546068
8.90101966,6.10168587,-1.58300080,-0.18608981,0.40516989

>  <Name>  (23) 
7lng_h

>  <RI>  (23) 
8.5107e+06

>  <Rbt.Current_Directory>  (23) 
/home/jta30/NA_complexes/7lng

>  <Rbt.Executable>  (23) 
rbdock ($Id: //depot/dev/client3/rdock/2013.1/src/exe/rbdock.cxx#4 $)

>  <Rbt.Library>  (23) 
libRbt.so (2013.1, Build901 2013/11/27)

>  <Rbt.Parameter_File>  (23) 
/software/dev_tools/swtree/cs400_centos7.2_pe2016-08/rdock/2013.1/centos7.2_conda/build/data/scripts/dock.prm

>  <Rbt.Receptor>  (23) 
7lng.prm

>  <SCORE>  (23) 
-19.5403

>  <SCORE.INTER>  (23) 
-16.2683

>  <SCORE.INTER.CONST>  (23) 
1

>  <SCORE.INTER.POLAR>  (23) 
-2.07732

>  <SCORE.INTER.REPUL>  (23) 
0.00282964

>  <SCORE.INTER.ROT>  (23) 
4

>  <SCORE.INTER.VDW>  (23) 
-18.6195

>  <SCORE.INTER.norm>  (23) 
-0.774679

>  <SCORE.INTRA>  (23) 
-3.24839

>  <SCORE.INTRA.DIHEDRAL>  (23) 
-6.5948

>  <SCORE.INTRA.DIHEDRAL.0>  (23) 
10.6104

>  <SCORE.INTRA.POLAR>  (23) 
0

>  <SCORE.INTRA.POLAR.0>  (23) 
0

>  <SCORE.INTRA.REPUL>  (23) 
0

>  <SCORE.INTRA.REPUL.0>  (23) 
0

>  <SCORE.INTRA.VDW>  (23) 
0.0490069

>  <SCORE.INTRA.VDW.0>  (23) 
-1.96818

>  <SCORE.INTRA.norm>  (23) 
-0.154685

>  <SCORE.RESTR>  (23) 
0

>  <SCORE.RESTR.CAVITY>  (23) 
0

>  <SCORE.RESTR.norm>  (23) 
0

>  <SCORE.SYSTEM>  (23) 
-0.0236432

>  <SCORE.SYSTEM.CONST>  (23) 
0

>  <SCORE.SYSTEM.DIHEDRAL>  (23) 
0.29567

>  <SCORE.SYSTEM.VDW>  (23) 
-0.171478

>  <SCORE.SYSTEM.norm>  (23) 
-0.00112587

>  <SCORE.heavy>  (23) 
21

>  <SCORE.norm>  (23) 
-0.93049

>  <Predicted_Rank>  (23) 
23.0

$$$$
7lng_h
     RDKit          3D

 24 26  0  0  0  0  0  0  0  0999 V2000
   12.5019   10.2653    5.2451 P   0  0  1  0  0  0  0  0  0  0  0  0
   12.9462   11.0647    4.0776 O   0  0  0  0  0  0  0  0  0  0  0  0
   11.6403    9.0682    5.0714 O   0  0  0  0  0  0  0  0  0  0  0  0
   14.8839    8.3984    4.3509 C   0  0  0  0  0  0  0  0  0  0  0  0
   15.9966    9.2997    4.3987 O   0  0  0  0  0  0  0  0  0  0  0  0
   14.4369    8.4424    5.8073 C   0  0  2  0  0  0  0  0  0  0  0  0
   13.7933    9.7298    6.0642 O   0  0  0  0  0  0  0  0  0  0  0  0
   15.7071    8.3952    6.5967 C   0  0  1  0  0  0  0  0  0  0  0  0
   16.2686    7.0550    6.7288 O   0  0  0  0  0  0  0  0  0  0  0  0
   16.5916    9.2838    5.7334 C   0  0  2  0  0  0  0  0  0  0  0  0
   19.7756   11.8174    8.7488 N   0  0  0  0  0  0  0  0  0  0  0  0
   19.8856   10.5328    8.1560 C   0  0  0  0  0  0  0  0  0  0  0  0
   20.9680    9.7693    8.3658 N   0  0  0  0  0  0  0  0  0  0  0  0
   18.8743   10.0929    7.3743 N   0  0  0  0  0  0  0  0  0  0  0  0
   17.7879   10.8627    7.1696 C   0  0  0  0  0  0  0  0  0  0  0  0
   17.6548   12.0963    7.7098 C   0  0  0  0  0  0  0  0  0  0  0  0
   18.6138   12.5969    8.4984 C   0  0  0  0  0  0  0  0  0  0  0  0
   18.5096   13.7224    9.0058 O   0  0  0  0  0  0  0  0  0  0  0  0
   16.4764   12.5911    7.3219 N   0  0  0  0  0  0  0  0  0  0  0  0
   15.8895   11.6870    6.5445 C   0  0  0  0  0  0  0  0  0  0  0  0
   16.7077   10.6174    6.4371 N   0  0  0  0  0  0  0  0  0  0  0  0
   17.1331    7.1093    7.1429 H   0  0  0  0  0  0  0  0  0  0  0  0
   21.7733   10.1535    8.8389 H   0  0  0  0  0  0  0  0  0  0  0  0
   20.9775    8.8098    8.0505 H   0  0  0  0  0  0  0  0  0  0  0  0
  1  2  1  6
  1  3  2  0
  1  7  1  0
  4  5  1  0
  4  6  1  0
  5 10  1  0
  6  7  1  6
  6  8  1  0
  8  9  1  6
  8 10  1  0
  9 22  1  0
 10 21  1  1
 11 12  1  0
 11 17  1  0
 12 13  1  0
 12 14  2  0
 13 23  1  0
 13 24  1  0
 14 15  1  0
 15 16  2  0
 15 21  1  0
 16 17  1  0
 16 19  1  0
 17 18  2  0
 19 20  2  0
 20 21  1  0
M  CHG  1   2  -1
M  END
>  <CHROM.0>  (24) 
-176.85516271

>  <CHROM.1>  (24) 
-91.30213635,57.98502449,172.69137638,-141.98982032,-8.80826015,16.18964025
10.29439484,6.52193493,2.74207675,0.40020097,-2.86303882

>  <Name>  (24) 
7lng_h

>  <RI>  (24) 
8.5107e+06

>  <Rbt.Current_Directory>  (24) 
/home/jta30/NA_complexes/7lng

>  <Rbt.Executable>  (24) 
rbdock ($Id: //depot/dev/client3/rdock/2013.1/src/exe/rbdock.cxx#4 $)

>  <Rbt.Library>  (24) 
libRbt.so (2013.1, Build901 2013/11/27)

>  <Rbt.Parameter_File>  (24) 
/software/dev_tools/swtree/cs400_centos7.2_pe2016-08/rdock/2013.1/centos7.2_conda/build/data/scripts/dock.prm

>  <Rbt.Receptor>  (24) 
7lng.prm

>  <SCORE>  (24) 
-20.3702

>  <SCORE.INTER>  (24) 
-16.4594

>  <SCORE.INTER.CONST>  (24) 
1

>  <SCORE.INTER.POLAR>  (24) 
-2.61056

>  <SCORE.INTER.REPUL>  (24) 
0.024935

>  <SCORE.INTER.ROT>  (24) 
4

>  <SCORE.INTER.VDW>  (24) 
-17.1082

>  <SCORE.INTER.norm>  (24) 
-0.783782

>  <SCORE.INTRA>  (24) 
-4.00405

>  <SCORE.INTRA.DIHEDRAL>  (24) 
-7.45129

>  <SCORE.INTRA.DIHEDRAL.0>  (24) 
10.6104

>  <SCORE.INTRA.POLAR>  (24) 
0

>  <SCORE.INTRA.POLAR.0>  (24) 
0

>  <SCORE.INTRA.REPUL>  (24) 
0

>  <SCORE.INTRA.REPUL.0>  (24) 
0

>  <SCORE.INTRA.VDW>  (24) 
-0.278401

>  <SCORE.INTRA.VDW.0>  (24) 
-1.96818

>  <SCORE.INTRA.norm>  (24) 
-0.190669

>  <SCORE.RESTR>  (24) 
0.133673

>  <SCORE.RESTR.CAVITY>  (24) 
0.133673

>  <SCORE.RESTR.norm>  (24) 
0.00636537

>  <SCORE.SYSTEM>  (24) 
-0.0404601

>  <SCORE.SYSTEM.CONST>  (24) 
0

>  <SCORE.SYSTEM.DIHEDRAL>  (24) 
0.314758

>  <SCORE.SYSTEM.VDW>  (24) 
-0.197839

>  <SCORE.SYSTEM.norm>  (24) 
-0.00192667

>  <SCORE.heavy>  (24) 
21

>  <SCORE.norm>  (24) 
-0.970012

>  <Predicted_Rank>  (24) 
24.0

$$$$
7lng_h
     RDKit          3D

 24 26  0  0  0  0  0  0  0  0999 V2000
   13.1322   13.9019    2.8419 P   0  0  1  0  0  0  0  0  0  0  0  0
   13.8294   14.6580    1.7734 O   0  0  0  0  0  0  0  0  0  0  0  0
   12.1291   12.8576    2.5123 O   0  0  0  0  0  0  0  0  0  0  0  0
   14.5170   14.7336    5.5941 C   0  0  0  0  0  0  0  0  0  0  0  0
   14.0396   13.7359    6.5049 O   0  0  0  0  0  0  0  0  0  0  0  0
   15.2258   13.8515    4.5732 C   0  0  2  0  0  0  0  0  0  0  0  0
   14.2200   13.1494    3.7778 O   0  0  0  0  0  0  0  0  0  0  0  0
   15.9591   12.8360    5.3918 C   0  0  1  0  0  0  0  0  0  0  0  0
   17.2130   13.3269    5.9534 O   0  0  0  0  0  0  0  0  0  0  0  0
   14.9283   12.5760    6.4813 C   0  0  2  0  0  0  0  0  0  0  0  0
   15.9580    7.6251    6.7603 N   0  0  0  0  0  0  0  0  0  0  0  0
   16.7272    8.7544    7.1433 C   0  0  0  0  0  0  0  0  0  0  0  0
   17.9503    8.6055    7.6732 N   0  0  0  0  0  0  0  0  0  0  0  0
   16.2013    9.9864    6.9620 N   0  0  0  0  0  0  0  0  0  0  0  0
   14.9736   10.1302    6.4264 C   0  0  0  0  0  0  0  0  0  0  0  0
   14.2085    9.0757    6.0603 C   0  0  0  0  0  0  0  0  0  0  0  0
   14.6648    7.8256    6.2060 C   0  0  0  0  0  0  0  0  0  0  0  0
   13.9818    6.8469    5.8736 O   0  0  0  0  0  0  0  0  0  0  0  0
   13.0617    9.5503    5.5669 N   0  0  0  0  0  0  0  0  0  0  0  0
   13.1058   10.8768    5.6341 C   0  0  0  0  0  0  0  0  0  0  0  0
   14.2870   11.2399    6.1799 N   0  0  0  0  0  0  0  0  0  0  0  0
   17.6437   12.6207    6.4410 H   0  0  0  0  0  0  0  0  0  0  0  0
   18.5570    9.4062    7.7764 H   0  0  0  0  0  0  0  0  0  0  0  0
   18.2643    7.6923    7.9690 H   0  0  0  0  0  0  0  0  0  0  0  0
  1  2  1  6
  1  3  2  0
  1  7  1  0
  4  5  1  0
  4  6  1  0
  5 10  1  0
  6  7  1  6
  6  8  1  0
  8  9  1  1
  8 10  1  0
  9 22  1  0
 10 21  1  6
 11 12  1  0
 11 17  1  0
 12 13  1  0
 12 14  2  0
 13 23  1  0
 13 24  1  0
 14 15  1  0
 15 16  2  0
 15 21  1  0
 16 17  1  0
 16 19  1  0
 17 18  2  0
 19 20  2  0
 20 21  1  0
M  CHG  1   2  -1
M  END
>  <CHROM.0>  (25) 
-61.12763281

>  <CHROM.1>  (25) 
62.43781235,61.82184163,-178.21424889,-165.61858480,168.21248280,14.69535050
11.46488298,5.32458314,1.94701087,-0.65681618,-0.29887132

>  <Name>  (25) 
7lng_h

>  <RI>  (25) 
8.5107e+06

>  <Rbt.Current_Directory>  (25) 
/home/jta30/NA_complexes/7lng

>  <Rbt.Executable>  (25) 
rbdock ($Id: //depot/dev/client3/rdock/2013.1/src/exe/rbdock.cxx#4 $)

>  <Rbt.Library>  (25) 
libRbt.so (2013.1, Build901 2013/11/27)

>  <Rbt.Parameter_File>  (25) 
/software/dev_tools/swtree/cs400_centos7.2_pe2016-08/rdock/2013.1/centos7.2_conda/build/data/scripts/dock.prm

>  <Rbt.Receptor>  (25) 
7lng.prm

>  <SCORE>  (25) 
-15.3019

>  <SCORE.INTER>  (25) 
-10.8142

>  <SCORE.INTER.CONST>  (25) 
1

>  <SCORE.INTER.POLAR>  (25) 
-1.0198

>  <SCORE.INTER.REPUL>  (25) 
0

>  <SCORE.INTER.ROT>  (25) 
4

>  <SCORE.INTER.VDW>  (25) 
-16.7468

>  <SCORE.INTER.norm>  (25) 
-0.514961

>  <SCORE.INTRA>  (25) 
-4.46234

>  <SCORE.INTRA.DIHEDRAL>  (25) 
-8.19424

>  <SCORE.INTRA.DIHEDRAL.0>  (25) 
10.6104

>  <SCORE.INTRA.POLAR>  (25) 
0

>  <SCORE.INTRA.POLAR.0>  (25) 
0

>  <SCORE.INTRA.REPUL>  (25) 
0

>  <SCORE.INTRA.REPUL.0>  (25) 
0

>  <SCORE.INTRA.VDW>  (25) 
-0.365225

>  <SCORE.INTRA.VDW.0>  (25) 
-1.96818

>  <SCORE.INTRA.norm>  (25) 
-0.212493

>  <SCORE.RESTR>  (25) 
0

>  <SCORE.RESTR.CAVITY>  (25) 
0

>  <SCORE.RESTR.norm>  (25) 
0

>  <SCORE.SYSTEM>  (25) 
-0.0254258

>  <SCORE.SYSTEM.CONST>  (25) 
0

>  <SCORE.SYSTEM.DIHEDRAL>  (25) 
0.275514

>  <SCORE.SYSTEM.VDW>  (25) 
-0.163183

>  <SCORE.SYSTEM.norm>  (25) 
-0.00121075

>  <SCORE.heavy>  (25) 
21

>  <SCORE.norm>  (25) 
-0.728664

>  <Predicted_Rank>  (25) 
25.0

$$$$
7lng_h
     RDKit          3D

 24 26  0  0  0  0  0  0  0  0999 V2000
   13.0257   13.9078    2.8606 P   0  0  1  0  0  0  0  0  0  0  0  0
   13.6906   14.6009    1.7304 O   0  0  0  0  0  0  0  0  0  0  0  0
   11.9818   12.8790    2.6215 O   0  0  0  0  0  0  0  0  0  0  0  0
   14.4752   14.7545    5.5794 C   0  0  0  0  0  0  0  0  0  0  0  0
   14.0289   13.7565    6.5053 O   0  0  0  0  0  0  0  0  0  0  0  0
   15.1605   13.8740    4.5413 C   0  0  2  0  0  0  0  0  0  0  0  0
   14.1371   13.1642    3.7756 O   0  0  0  0  0  0  0  0  0  0  0  0
   15.9219   12.8647    5.3416 C   0  0  1  0  0  0  0  0  0  0  0  0
   17.1881   13.3639    5.8672 O   0  0  0  0  0  0  0  0  0  0  0  0
   14.9232   12.6015    6.4597 C   0  0  2  0  0  0  0  0  0  0  0  0
   15.9562    7.6554    6.8041 N   0  0  0  0  0  0  0  0  0  0  0  0
   16.7262    8.7902    7.1686 C   0  0  0  0  0  0  0  0  0  0  0  0
   17.9512    8.6492    7.6961 N   0  0  0  0  0  0  0  0  0  0  0  0
   16.1991   10.0193    6.9721 N   0  0  0  0  0  0  0  0  0  0  0  0
   14.9694   10.1552    6.4388 C   0  0  0  0  0  0  0  0  0  0  0  0
   14.2035    9.0954    6.0902 C   0  0  0  0  0  0  0  0  0  0  0  0
   14.6608    7.8476    6.2517 C   0  0  0  0  0  0  0  0  0  0  0  0
   13.9771    6.8641    5.9354 O   0  0  0  0  0  0  0  0  0  0  0  0
   13.0547    9.5626    5.5943 N   0  0  0  0  0  0  0  0  0  0  0  0
   13.0984   10.8899    5.6429 C   0  0  0  0  0  0  0  0  0  0  0  0
   14.2814   11.2610    6.1794 N   0  0  0  0  0  0  0  0  0  0  0  0
   17.6293   12.6657    6.3566 H   0  0  0  0  0  0  0  0  0  0  0  0
   18.3443    9.3857    8.2644 H   0  0  0  0  0  0  0  0  0  0  0  0
   18.4803    7.8062    7.5250 H   0  0  0  0  0  0  0  0  0  0  0  0
  1  2  1  6
  1  3  2  0
  1  7  1  0
  4  5  1  0
  4  6  1  0
  5 10  1  0
  6  7  1  6
  6  8  1  0
  8  9  1  1
  8 10  1  0
  9 22  1  0
 10 21  1  6
 11 12  1  0
 11 17  1  0
 12 13  1  0
 12 14  2  0
 13 23  1  0
 13 24  1  0
 14 15  1  0
 15 16  2  0
 15 21  1  0
 16 17  1  0
 16 19  1  0
 17 18  2  0
 19 20  2  0
 20 21  1  0
M  CHG  1   2  -1
M  END
>  <CHROM.0>  (26) 
-62.04288570

>  <CHROM.1>  (26) 
65.26365395,62.24473942,-179.14375384,-164.05784697,-156.64577381,14.65597926
11.48351893,5.33269030,1.96162801,-0.63994768,-0.30126803

>  <Name>  (26) 
7lng_h

>  <RI>  (26) 
8.5107e+06

>  <Rbt.Current_Directory>  (26) 
/home/jta30/NA_complexes/7lng

>  <Rbt.Executable>  (26) 
rbdock ($Id: //depot/dev/client3/rdock/2013.1/src/exe/rbdock.cxx#4 $)

>  <Rbt.Library>  (26) 
libRbt.so (2013.1, Build901 2013/11/27)

>  <Rbt.Parameter_File>  (26) 
/software/dev_tools/swtree/cs400_centos7.2_pe2016-08/rdock/2013.1/centos7.2_conda/build/data/scripts/dock.prm

>  <Rbt.Receptor>  (26) 
7lng.prm

>  <SCORE>  (26) 
-15.3604

>  <SCORE.INTER>  (26) 
-10.9025

>  <SCORE.INTER.CONST>  (26) 
1

>  <SCORE.INTER.POLAR>  (26) 
-1.11358

>  <SCORE.INTER.REPUL>  (26) 
0

>  <SCORE.INTER.ROT>  (26) 
4

>  <SCORE.INTER.VDW>  (26) 
-16.5163

>  <SCORE.INTER.norm>  (26) 
-0.519167

>  <SCORE.INTRA>  (26) 
-4.43297

>  <SCORE.INTRA.DIHEDRAL>  (26) 
-8.14815

>  <SCORE.INTRA.DIHEDRAL.0>  (26) 
10.6104

>  <SCORE.INTRA.POLAR>  (26) 
0

>  <SCORE.INTRA.POLAR.0>  (26) 
0

>  <SCORE.INTRA.REPUL>  (26) 
0

>  <SCORE.INTRA.REPUL.0>  (26) 
0

>  <SCORE.INTRA.VDW>  (26) 
-0.358892

>  <SCORE.INTRA.VDW.0>  (26) 
-1.96818

>  <SCORE.INTRA.norm>  (26) 
-0.211094

>  <SCORE.RESTR>  (26) 
0

>  <SCORE.RESTR.CAVITY>  (26) 
0

>  <SCORE.RESTR.norm>  (26) 
0

>  <SCORE.SYSTEM>  (26) 
-0.024894

>  <SCORE.SYSTEM.CONST>  (26) 
0

>  <SCORE.SYSTEM.DIHEDRAL>  (26) 
0.288745

>  <SCORE.SYSTEM.VDW>  (26) 
-0.169266

>  <SCORE.SYSTEM.norm>  (26) 
-0.00118543

>  <SCORE.heavy>  (26) 
21

>  <SCORE.norm>  (26) 
-0.731446

>  <Predicted_Rank>  (26) 
26.0

$$$$
7lng_h
     RDKit          3D

 24 26  0  0  0  0  0  0  0  0999 V2000
   13.2534   12.9636    2.4849 P   0  0  1  0  0  0  0  0  0  0  0  0
   12.6022   11.7085    2.0374 O   0  0  0  0  0  0  0  0  0  0  0  0
   12.4508   14.1028    2.9983 O   0  0  0  0  0  0  0  0  0  0  0  0
   14.3113   14.5278    5.1925 C   0  0  0  0  0  0  0  0  0  0  0  0
   14.0674   13.6191    6.2730 O   0  0  0  0  0  0  0  0  0  0  0  0
   15.1672   13.6494    4.2877 C   0  0  2  0  0  0  0  0  0  0  0  0
   14.3128   12.6384    3.6670 O   0  0  0  0  0  0  0  0  0  0  0  0
   16.1096   12.9508    5.2166 C   0  0  1  0  0  0  0  0  0  0  0  0
   17.2458   13.7688    5.6272 O   0  0  0  0  0  0  0  0  0  0  0  0
   15.1756   12.6731    6.3861 C   0  0  2  0  0  0  0  0  0  0  0  0
   17.2249    8.1422    7.3455 N   0  0  0  0  0  0  0  0  0  0  0  0
   17.7533    9.4499    7.5018 C   0  0  0  0  0  0  0  0  0  0  0  0
   18.9970    9.6377    7.9673 N   0  0  0  0  0  0  0  0  0  0  0  0
   16.9762   10.5050    7.1703 N   0  0  0  0  0  0  0  0  0  0  0  0
   15.7288   10.3105    6.7001 C   0  0  0  0  0  0  0  0  0  0  0  0
   15.1893    9.0786    6.5489 C   0  0  0  0  0  0  0  0  0  0  0  0
   15.9010    7.9862    6.8525 C   0  0  0  0  0  0  0  0  0  0  0  0
   15.4270    6.8495    6.7177 O   0  0  0  0  0  0  0  0  0  0  0  0
   13.9533    9.2267    6.0650 N   0  0  0  0  0  0  0  0  0  0  0  0
   13.7216   10.5280    5.9271 C   0  0  0  0  0  0  0  0  0  0  0  0
   14.8179   11.2046    6.3334 N   0  0  0  0  0  0  0  0  0  0  0  0
   17.7496   14.0292    4.8525 H   0  0  0  0  0  0  0  0  0  0  0  0
   19.7036    8.9313    7.8201 H   0  0  0  0  0  0  0  0  0  0  0  0
   19.2268   10.4859    8.4652 H   0  0  0  0  0  0  0  0  0  0  0  0
  1  2  1  1
  1  3  2  0
  1  7  1  0
  4  5  1  0
  4  6  1  0
  5 10  1  0
  6  7  1  1
  6  8  1  0
  8  9  1  1
  8 10  1  0
  9 22  1  0
 10 21  1  6
 11 12  1  0
 11 17  1  0
 12 13  1  0
 12 14  2  0
 13 23  1  0
 13 24  1  0
 14 15  1  0
 15 16  2  0
 15 21  1  0
 16 17  1  0
 16 19  1  0
 17 18  2  0
 19 20  2  0
 20 21  1  0
M  CHG  1   2  -1
M  END
>  <CHROM.0>  (27) 
59.58743076

>  <CHROM.1>  (27) 
177.16702418,73.19081361,-59.97772836,-166.42109525,27.99303209,15.13348582
11.38175859,5.44887094,2.23893197,-0.67376525,-0.24549433

>  <Name>  (27) 
7lng_h

>  <RI>  (27) 
8.5107e+06

>  <Rbt.Current_Directory>  (27) 
/home/jta30/NA_complexes/7lng

>  <Rbt.Executable>  (27) 
rbdock ($Id: //depot/dev/client3/rdock/2013.1/src/exe/rbdock.cxx#4 $)

>  <Rbt.Library>  (27) 
libRbt.so (2013.1, Build901 2013/11/27)

>  <Rbt.Parameter_File>  (27) 
/software/dev_tools/swtree/cs400_centos7.2_pe2016-08/rdock/2013.1/centos7.2_conda/build/data/scripts/dock.prm

>  <Rbt.Receptor>  (27) 
7lng.prm

>  <SCORE>  (27) 
-16.0589

>  <SCORE.INTER>  (27) 
-12.7843

>  <SCORE.INTER.CONST>  (27) 
1

>  <SCORE.INTER.POLAR>  (27) 
-1.85359

>  <SCORE.INTER.REPUL>  (27) 
0

>  <SCORE.INTER.ROT>  (27) 
4

>  <SCORE.INTER.VDW>  (27) 
-15.882

>  <SCORE.INTER.norm>  (27) 
-0.608774

>  <SCORE.INTRA>  (27) 
-3.8627

>  <SCORE.INTRA.DIHEDRAL>  (27) 
-7.49203

>  <SCORE.INTRA.DIHEDRAL.0>  (27) 
10.6104

>  <SCORE.INTRA.POLAR>  (27) 
0

>  <SCORE.INTRA.POLAR.0>  (27) 
0

>  <SCORE.INTRA.REPUL>  (27) 
0

>  <SCORE.INTRA.REPUL.0>  (27) 
0

>  <SCORE.INTRA.VDW>  (27) 
-0.116682

>  <SCORE.INTRA.VDW.0>  (27) 
-1.96818

>  <SCORE.INTRA.norm>  (27) 
-0.183938

>  <SCORE.RESTR>  (27) 
0

>  <SCORE.RESTR.CAVITY>  (27) 
0

>  <SCORE.RESTR.norm>  (27) 
0

>  <SCORE.SYSTEM>  (27) 
0.588015

>  <SCORE.SYSTEM.CONST>  (27) 
0

>  <SCORE.SYSTEM.DIHEDRAL>  (27) 
0.270488

>  <SCORE.SYSTEM.VDW>  (27) 
0.452771

>  <SCORE.SYSTEM.norm>  (27) 
0.0280007

>  <SCORE.heavy>  (27) 
21

>  <SCORE.norm>  (27) 
-0.764711

>  <Predicted_Rank>  (27) 
27.0

$$$$
7lng_h
     RDKit          3D

 24 26  0  0  0  0  0  0  0  0999 V2000
   15.1493    8.5928    6.7091 P   0  0  1  0  0  0  0  0  0  0  0  0
   15.1468    8.6477    5.2270 O   0  0  0  0  0  0  0  0  0  0  0  0
   15.1554    7.2933    7.4280 O   0  0  0  0  0  0  0  0  0  0  0  0
   18.0957    9.0213    5.5468 C   0  0  0  0  0  0  0  0  0  0  0  0
   18.1595   10.4385    5.3469 O   0  0  0  0  0  0  0  0  0  0  0  0
   17.8191    8.9712    7.0447 C   0  0  2  0  0  0  0  0  0  0  0  0
   16.4385    9.3889    7.2833 O   0  0  0  0  0  0  0  0  0  0  0  0
   18.7237   10.0074    7.6335 C   0  0  1  0  0  0  0  0  0  0  0  0
   20.1034    9.5612    7.7949 O   0  0  0  0  0  0  0  0  0  0  0  0
   18.6132   11.0930    6.5722 C   0  0  2  0  0  0  0  0  0  0  0  0
   13.9630   12.9956    5.9352 N   0  0  0  0  0  0  0  0  0  0  0  0
   14.6162   11.9113    5.2939 C   0  0  0  0  0  0  0  0  0  0  0  0
   13.9965   11.2037    4.3379 N   0  0  0  0  0  0  0  0  0  0  0  0
   15.8792   11.6058    5.6665 N   0  0  0  0  0  0  0  0  0  0  0  0
   16.4981   12.3220    6.6251 C   0  0  0  0  0  0  0  0  0  0  0  0
   15.9016   13.3546    7.2649 C   0  0  0  0  0  0  0  0  0  0  0  0
   14.6532   13.7179    6.9461 C   0  0  0  0  0  0  0  0  0  0  0  0
   14.0906   14.6626    7.5171 O   0  0  0  0  0  0  0  0  0  0  0  0
   16.7729   13.8514    8.1469 N   0  0  0  0  0  0  0  0  0  0  0  0
   17.8891   13.1347    8.0668 C   0  0  0  0  0  0  0  0  0  0  0  0
   17.7169   12.1752    7.1316 N   0  0  0  0  0  0  0  0  0  0  0  0
   20.1155    8.7161    8.2504 H   0  0  0  0  0  0  0  0  0  0  0  0
   14.1762   10.2142    4.2451 H   0  0  0  0  0  0  0  0  0  0  0  0
   13.3500   11.6607    3.7108 H   0  0  0  0  0  0  0  0  0  0  0  0
  1  2  1  6
  1  3  2  0
  1  7  1  0
  4  5  1  0
  4  6  1  0
  5 10  1  0
  6  7  1  6
  6  8  1  0
  8  9  1  6
  8 10  1  0
  9 22  1  0
 10 21  1  1
 11 12  1  0
 11 17  1  0
 12 13  1  0
 12 14  2  0
 13 23  1  0
 13 24  1  0
 14 15  1  0
 15 16  2  0
 15 21  1  0
 16 17  1  0
 16 19  1  0
 17 18  2  0
 19 20  2  0
 20 21  1  0
M  CHG  1   2  -1
M  END
>  <CHROM.0>  (28) 
59.22787383

>  <CHROM.1>  (28) 
-64.51461174,62.34165453,-50.39392927,10.66512430,-145.89919364,16.37245066
10.90449637,6.62949394,1.08384264,0.32605626,-2.97079518

>  <Name>  (28) 
7lng_h

>  <RI>  (28) 
8.5107e+06

>  <Rbt.Current_Directory>  (28) 
/home/jta30/NA_complexes/7lng

>  <Rbt.Executable>  (28) 
rbdock ($Id: //depot/dev/client3/rdock/2013.1/src/exe/rbdock.cxx#4 $)

>  <Rbt.Library>  (28) 
libRbt.so (2013.1, Build901 2013/11/27)

>  <Rbt.Parameter_File>  (28) 
/software/dev_tools/swtree/cs400_centos7.2_pe2016-08/rdock/2013.1/centos7.2_conda/build/data/scripts/dock.prm

>  <Rbt.Receptor>  (28) 
7lng.prm

>  <SCORE>  (28) 
-21.436

>  <SCORE.INTER>  (28) 
-13.3043

>  <SCORE.INTER.CONST>  (28) 
1

>  <SCORE.INTER.POLAR>  (28) 
-2.34467

>  <SCORE.INTER.REPUL>  (28) 
0

>  <SCORE.INTER.ROT>  (28) 
4

>  <SCORE.INTER.VDW>  (28) 
-14.7324

>  <SCORE.INTER.norm>  (28) 
-0.633539

>  <SCORE.INTRA>  (28) 
-8.72048

>  <SCORE.INTRA.DIHEDRAL>  (28) 
-7.72272

>  <SCORE.INTRA.DIHEDRAL.0>  (28) 
10.6104

>  <SCORE.INTRA.POLAR>  (28) 
-1.01645

>  <SCORE.INTRA.POLAR.0>  (28) 
0

>  <SCORE.INTRA.REPUL>  (28) 
0

>  <SCORE.INTRA.REPUL.0>  (28) 
0

>  <SCORE.INTRA.VDW>  (28) 
-1.40319

>  <SCORE.INTRA.VDW.0>  (28) 
-1.96818

>  <SCORE.INTRA.norm>  (28) 
-0.415261

>  <SCORE.RESTR>  (28) 
0

>  <SCORE.RESTR.CAVITY>  (28) 
0

>  <SCORE.RESTR.norm>  (28) 
0

>  <SCORE.SYSTEM>  (28) 
0.588817

>  <SCORE.SYSTEM.CONST>  (28) 
0

>  <SCORE.SYSTEM.DIHEDRAL>  (28) 
0.272432

>  <SCORE.SYSTEM.VDW>  (28) 
0.452601

>  <SCORE.SYSTEM.norm>  (28) 
0.0280389

>  <SCORE.heavy>  (28) 
21

>  <SCORE.norm>  (28) 
-1.02076

>  <Predicted_Rank>  (28) 
28.0

$$$$
7lng_h
     RDKit          3D

 24 26  0  0  0  0  0  0  0  0999 V2000
   15.6627    6.1534    3.4168 P   0  0  1  0  0  0  0  0  0  0  0  0
   16.5116    6.1265    2.2010 O   0  0  0  0  0  0  0  0  0  0  0  0
   15.7782    5.0987    4.4559 O   0  0  0  0  0  0  0  0  0  0  0  0
   14.6387    6.9893    6.2171 C   0  0  0  0  0  0  0  0  0  0  0  0
   15.8715    6.9593    6.9464 O   0  0  0  0  0  0  0  0  0  0  0  0
   14.9530    8.0784    5.1984 C   0  0  2  0  0  0  0  0  0  0  0  0
   15.8928    7.5455    4.2134 O   0  0  0  0  0  0  0  0  0  0  0  0
   15.6577    9.1405    5.9821 C   0  0  1  0  0  0  0  0  0  0  0  0
   14.7606   10.0033    6.7433 O   0  0  0  0  0  0  0  0  0  0  0  0
   16.5067    8.2747    6.9024 C   0  0  2  0  0  0  0  0  0  0  0  0
   20.8971   10.6357    7.7968 N   0  0  0  0  0  0  0  0  0  0  0  0
   19.6455   10.7246    8.4597 C   0  0  0  0  0  0  0  0  0  0  0  0
   19.4795   11.5445    9.5080 N   0  0  0  0  0  0  0  0  0  0  0  0
   18.6212    9.9649    8.0114 N   0  0  0  0  0  0  0  0  0  0  0  0
   18.7927    9.1454    6.9560 C   0  0  0  0  0  0  0  0  0  0  0  0
   19.9746    9.0276    6.3075 C   0  0  0  0  0  0  0  0  0  0  0  0
   21.0328    9.7518    6.6922 C   0  0  0  0  0  0  0  0  0  0  0  0
   22.1225    9.6615    6.1096 O   0  0  0  0  0  0  0  0  0  0  0  0
   19.8149    8.1465    5.3166 N   0  0  0  0  0  0  0  0  0  0  0  0
   18.5588    7.7140    5.3528 C   0  0  0  0  0  0  0  0  0  0  0  0
   17.9247    8.3228    6.3786 N   0  0  0  0  0  0  0  0  0  0  0  0
   14.3490    9.4962    7.4469 H   0  0  0  0  0  0  0  0  0  0  0  0
   18.7532   11.3585   10.1847 H   0  0  0  0  0  0  0  0  0  0  0  0
   20.0811   12.3479    9.6205 H   0  0  0  0  0  0  0  0  0  0  0  0
  1  2  1  6
  1  3  2  0
  1  7  1  0
  4  5  1  0
  4  6  1  0
  5 10  1  0
  6  7  1  6
  6  8  1  0
  8  9  1  1
  8 10  1  0
  9 22  1  0
 10 21  1  6
 11 12  1  0
 11 17  1  0
 12 13  1  0
 12 14  2  0
 13 23  1  0
 13 24  1  0
 14 15  1  0
 15 16  2  0
 15 21  1  0
 16 17  1  0
 16 19  1  0
 17 18  2  0
 19 20  2  0
 20 21  1  0
M  CHG  1   2  -1
M  END
>  <CHROM.0>  (29) 
59.00489509

>  <CHROM.1>  (29) 
160.72038042,51.31486960,67.67943799,-141.47408159,-156.01723025,17.57701926
8.36004952,5.97323978,-2.32765981,0.14810217,0.88513590

>  <Name>  (29) 
7lng_h

>  <RI>  (29) 
8.5107e+06

>  <Rbt.Current_Directory>  (29) 
/home/jta30/NA_complexes/7lng

>  <Rbt.Executable>  (29) 
rbdock ($Id: //depot/dev/client3/rdock/2013.1/src/exe/rbdock.cxx#4 $)

>  <Rbt.Library>  (29) 
libRbt.so (2013.1, Build901 2013/11/27)

>  <Rbt.Parameter_File>  (29) 
/software/dev_tools/swtree/cs400_centos7.2_pe2016-08/rdock/2013.1/centos7.2_conda/build/data/scripts/dock.prm

>  <Rbt.Receptor>  (29) 
7lng.prm

>  <SCORE>  (29) 
-16.3738

>  <SCORE.INTER>  (29) 
-14.5073

>  <SCORE.INTER.CONST>  (29) 
1

>  <SCORE.INTER.POLAR>  (29) 
-3.50424

>  <SCORE.INTER.REPUL>  (29) 
0.393064

>  <SCORE.INTER.ROT>  (29) 
4

>  <SCORE.INTER.VDW>  (29) 
-13.9582

>  <SCORE.INTER.norm>  (29) 
-0.690824

>  <SCORE.INTRA>  (29) 
-3.27322

>  <SCORE.INTRA.DIHEDRAL>  (29) 
-7.49831

>  <SCORE.INTRA.DIHEDRAL.0>  (29) 
10.6104

>  <SCORE.INTRA.POLAR>  (29) 
0

>  <SCORE.INTRA.POLAR.0>  (29) 
0

>  <SCORE.INTRA.REPUL>  (29) 
0

>  <SCORE.INTRA.REPUL.0>  (29) 
0

>  <SCORE.INTRA.VDW>  (29) 
0.47594

>  <SCORE.INTRA.VDW.0>  (29) 
-1.96818

>  <SCORE.INTRA.norm>  (29) 
-0.155867

>  <SCORE.RESTR>  (29) 
0.817049

>  <SCORE.RESTR.CAVITY>  (29) 
0.817049

>  <SCORE.RESTR.norm>  (29) 
0.0389071

>  <SCORE.SYSTEM>  (29) 
0.589676

>  <SCORE.SYSTEM.CONST>  (29) 
0

>  <SCORE.SYSTEM.DIHEDRAL>  (29) 
0.274231

>  <SCORE.SYSTEM.VDW>  (29) 
0.45256

>  <SCORE.SYSTEM.norm>  (29) 
0.0280798

>  <SCORE.heavy>  (29) 
21

>  <SCORE.norm>  (29) 
-0.779704

>  <Predicted_Rank>  (29) 
29.0

$$$$
7lng_h
     RDKit          3D

 24 26  0  0  0  0  0  0  0  0999 V2000
   13.9803   10.8391    5.9126 P   0  0  1  0  0  0  0  0  0  0  0  0
   14.8645   11.2905    7.0145 O   0  0  0  0  0  0  0  0  0  0  0  0
   13.4131   11.8071    4.9396 O   0  0  0  0  0  0  0  0  0  0  0  0
   15.7313    7.6303    4.3152 C   0  0  0  0  0  0  0  0  0  0  0  0
   17.0203    8.2555    4.3212 O   0  0  0  0  0  0  0  0  0  0  0  0
   15.0577    8.3873    5.4537 C   0  0  2  0  0  0  0  0  0  0  0  0
   14.7553    9.7448    5.0032 O   0  0  0  0  0  0  0  0  0  0  0  0
   16.1021    8.4766    6.5215 C   0  0  1  0  0  0  0  0  0  0  0  0
   16.2421    7.2579    7.3113 O   0  0  0  0  0  0  0  0  0  0  0  0
   17.3368    8.7281    5.6674 C   0  0  2  0  0  0  0  0  0  0  0  0
   20.7261   11.7169    7.9544 N   0  0  0  0  0  0  0  0  0  0  0  0
   20.5995   10.3036    7.9372 C   0  0  0  0  0  0  0  0  0  0  0  0
   21.4623    9.5279    8.6100 N   0  0  0  0  0  0  0  0  0  0  0  0
   19.5886    9.7537    7.2280 N   0  0  0  0  0  0  0  0  0  0  0  0
   18.7229   10.5377    6.5568 C   0  0  0  0  0  0  0  0  0  0  0  0
   18.8203   11.8874    6.5422 C   0  0  0  0  0  0  0  0  0  0  0  0
   19.7933   12.5031    7.2251 C   0  0  0  0  0  0  0  0  0  0  0  0
   19.8976   13.7376    7.2279 O   0  0  0  0  0  0  0  0  0  0  0  0
   17.8203   12.3647    5.7966 N   0  0  0  0  0  0  0  0  0  0  0  0
   17.1179   11.3309    5.3448 C   0  0  0  0  0  0  0  0  0  0  0  0
   17.6840   10.1937    5.8045 N   0  0  0  0  0  0  0  0  0  0  0  0
   17.0764    7.2781    7.7862 H   0  0  0  0  0  0  0  0  0  0  0  0
   21.4369    8.5250    8.4934 H   0  0  0  0  0  0  0  0  0  0  0  0
   22.1376    9.9470    9.2331 H   0  0  0  0  0  0  0  0  0  0  0  0
  1  2  1  1
  1  3  2  0
  1  7  1  0
  4  5  1  0
  4  6  1  0
  5 10  1  0
  6  7  1  6
  6  8  1  0
  8  9  1  6
  8 10  1  0
  9 22  1  0
 10 21  1  6
 11 12  1  0
 11 17  1  0
 12 13  1  0
 12 14  2  0
 13 23  1  0
 13 24  1  0
 14 15  1  0
 15 16  2  0
 15 21  1  0
 16 17  1  0
 16 19  1  0
 17 18  2  0
 19 20  2  0
 20 21  1  0
M  CHG  1   2  -1
M  END
>  <CHROM.0>  (30) 
-177.61180139

>  <CHROM.1>  (30) 
70.92735149,177.38428731,163.26836860,-135.56413173,-171.96983763,17.20971387
10.29766606,6.29543525,2.86114505,0.35172770,-3.08146178

>  <Name>  (30) 
7lng_h

>  <RI>  (30) 
8.5107e+06

>  <Rbt.Current_Directory>  (30) 
/home/jta30/NA_complexes/7lng

>  <Rbt.Executable>  (30) 
rbdock ($Id: //depot/dev/client3/rdock/2013.1/src/exe/rbdock.cxx#4 $)

>  <Rbt.Library>  (30) 
libRbt.so (2013.1, Build901 2013/11/27)

>  <Rbt.Parameter_File>  (30) 
/software/dev_tools/swtree/cs400_centos7.2_pe2016-08/rdock/2013.1/centos7.2_conda/build/data/scripts/dock.prm

>  <Rbt.Receptor>  (30) 
7lng.prm

>  <SCORE>  (30) 
-15.9906

>  <SCORE.INTER>  (30) 
-11.8432

>  <SCORE.INTER.CONST>  (30) 
1

>  <SCORE.INTER.POLAR>  (30) 
-2.45521

>  <SCORE.INTER.REPUL>  (30) 
0

>  <SCORE.INTER.ROT>  (30) 
4

>  <SCORE.INTER.VDW>  (30) 
-12.8955

>  <SCORE.INTER.norm>  (30) 
-0.56396

>  <SCORE.INTRA>  (30) 
-4.21873

>  <SCORE.INTRA.DIHEDRAL>  (30) 
-6.75808

>  <SCORE.INTRA.DIHEDRAL.0>  (30) 
10.6104

>  <SCORE.INTRA.POLAR>  (30) 
0

>  <SCORE.INTRA.POLAR.0>  (30) 
0

>  <SCORE.INTRA.REPUL>  (30) 
0

>  <SCORE.INTRA.REPUL.0>  (30) 
0

>  <SCORE.INTRA.VDW>  (30) 
-0.839685

>  <SCORE.INTRA.VDW.0>  (30) 
-1.96818

>  <SCORE.INTRA.norm>  (30) 
-0.200892

>  <SCORE.RESTR>  (30) 
0.115465

>  <SCORE.RESTR.CAVITY>  (30) 
0.115465

>  <SCORE.RESTR.norm>  (30) 
0.00549832

>  <SCORE.SYSTEM>  (30) 
-0.0442229

>  <SCORE.SYSTEM.CONST>  (30) 
0

>  <SCORE.SYSTEM.DIHEDRAL>  (30) 
0.295714

>  <SCORE.SYSTEM.VDW>  (30) 
-0.19208

>  <SCORE.SYSTEM.norm>  (30) 
-0.00210585

>  <SCORE.heavy>  (30) 
21

>  <SCORE.norm>  (30) 
-0.761459

>  <Predicted_Rank>  (30) 
30.0

$$$$
7lng_h
     RDKit          3D

 24 26  0  0  0  0  0  0  0  0999 V2000
   13.0570   12.4405    2.1312 P   0  0  1  0  0  0  0  0  0  0  0  0
   12.6910   11.1268    1.5483 O   0  0  0  0  0  0  0  0  0  0  0  0
   12.0283   13.3234    2.7376 O   0  0  0  0  0  0  0  0  0  0  0  0
   14.1827   14.2825    4.5984 C   0  0  0  0  0  0  0  0  0  0  0  0
   13.9433   13.5039    5.7770 O   0  0  0  0  0  0  0  0  0  0  0  0
   15.0268   13.3020    3.7928 C   0  0  2  0  0  0  0  0  0  0  0  0
   14.1623   12.2321    3.2975 O   0  0  0  0  0  0  0  0  0  0  0  0
   15.9734   12.7080    4.7878 C   0  0  1  0  0  0  0  0  0  0  0  0
   17.1169   13.5607    5.0941 O   0  0  0  0  0  0  0  0  0  0  0  0
   15.0477   12.5704    5.9884 C   0  0  2  0  0  0  0  0  0  0  0  0
   17.0882    8.1632    7.4246 N   0  0  0  0  0  0  0  0  0  0  0  0
   17.6249    9.4769    7.4262 C   0  0  0  0  0  0  0  0  0  0  0  0
   18.8756    9.7080    7.8517 N   0  0  0  0  0  0  0  0  0  0  0  0
   16.8483   10.4929    6.9882 N   0  0  0  0  0  0  0  0  0  0  0  0
   15.5938   10.2546    6.5588 C   0  0  0  0  0  0  0  0  0  0  0  0
   15.0466    9.0169    6.5539 C   0  0  0  0  0  0  0  0  0  0  0  0
   15.7571    7.9611    6.9693 C   0  0  0  0  0  0  0  0  0  0  0  0
   15.2760    6.8194    6.9692 O   0  0  0  0  0  0  0  0  0  0  0  0
   13.8049    9.1173    6.0723 N   0  0  0  0  0  0  0  0  0  0  0  0
   13.5775   10.3964    5.7920 C   0  0  0  0  0  0  0  0  0  0  0  0
   14.6824   11.1075    6.1057 N   0  0  0  0  0  0  0  0  0  0  0  0
   17.6299   13.7075    4.2959 H   0  0  0  0  0  0  0  0  0  0  0  0
   19.5257    8.9415    7.9494 H   0  0  0  0  0  0  0  0  0  0  0  0
   19.1670   10.6491    8.0744 H   0  0  0  0  0  0  0  0  0  0  0  0
  1  2  1  1
  1  3  2  0
  1  7  1  0
  4  5  1  0
  4  6  1  0
  5 10  1  0
  6  7  1  1
  6  8  1  0
  8  9  1  1
  8 10  1  0
  9 22  1  0
 10 21  1  6
 11 12  1  0
 11 17  1  0
 12 13  1  0
 12 14  2  0
 13 23  1  0
 13 24  1  0
 14 15  1  0
 15 16  2  0
 15 21  1  0
 16 17  1  0
 16 19  1  0
 17 18  2  0
 19 20  2  0
 20 21  1  0
M  CHG  1   2  -1
M  END
>  <CHROM.0>  (31) 
-178.01533647

>  <CHROM.1>  (31) 
160.82104508,70.87587228,-61.61600862,-166.72554808,15.77093834,14.98835196
11.16622162,5.20434833,2.25094407,-0.66737931,-0.35204193

>  <Name>  (31) 
7lng_h

>  <RI>  (31) 
8.5107e+06

>  <Rbt.Current_Directory>  (31) 
/home/jta30/NA_complexes/7lng

>  <Rbt.Executable>  (31) 
rbdock ($Id: //depot/dev/client3/rdock/2013.1/src/exe/rbdock.cxx#4 $)

>  <Rbt.Library>  (31) 
libRbt.so (2013.1, Build901 2013/11/27)

>  <Rbt.Parameter_File>  (31) 
/software/dev_tools/swtree/cs400_centos7.2_pe2016-08/rdock/2013.1/centos7.2_conda/build/data/scripts/dock.prm

>  <Rbt.Receptor>  (31) 
7lng.prm

>  <SCORE>  (31) 
-16.7077

>  <SCORE.INTER>  (31) 
-12.5905

>  <SCORE.INTER.CONST>  (31) 
1

>  <SCORE.INTER.POLAR>  (31) 
-1.86226

>  <SCORE.INTER.REPUL>  (31) 
0

>  <SCORE.INTER.ROT>  (31) 
4

>  <SCORE.INTER.VDW>  (31) 
-15.6588

>  <SCORE.INTER.norm>  (31) 
-0.599546

>  <SCORE.INTRA>  (31) 
-4.07212

>  <SCORE.INTRA.DIHEDRAL>  (31) 
-7.55113

>  <SCORE.INTRA.DIHEDRAL.0>  (31) 
10.6104

>  <SCORE.INTRA.POLAR>  (31) 
0

>  <SCORE.INTRA.POLAR.0>  (31) 
0

>  <SCORE.INTRA.REPUL>  (31) 
0

>  <SCORE.INTRA.REPUL.0>  (31) 
0

>  <SCORE.INTRA.VDW>  (31) 
-0.296558

>  <SCORE.INTRA.VDW.0>  (31) 
-1.96818

>  <SCORE.INTRA.norm>  (31) 
-0.193911

>  <SCORE.RESTR>  (31) 
0

>  <SCORE.RESTR.CAVITY>  (31) 
0

>  <SCORE.RESTR.norm>  (31) 
0

>  <SCORE.SYSTEM>  (31) 
-0.0450666

>  <SCORE.SYSTEM.CONST>  (31) 
0

>  <SCORE.SYSTEM.DIHEDRAL>  (31) 
0.287676

>  <SCORE.SYSTEM.VDW>  (31) 
-0.188905

>  <SCORE.SYSTEM.norm>  (31) 
-0.00214603

>  <SCORE.heavy>  (31) 
21

>  <SCORE.norm>  (31) 
-0.795603

>  <Predicted_Rank>  (31) 
31.0

$$$$
7lng_h
     RDKit          3D

 24 26  0  0  0  0  0  0  0  0999 V2000
   13.0320   13.9267    2.8503 P   0  0  1  0  0  0  0  0  0  0  0  0
   13.7134   14.5802    1.7065 O   0  0  0  0  0  0  0  0  0  0  0  0
   11.9519   12.9310    2.6320 O   0  0  0  0  0  0  0  0  0  0  0  0
   14.5287   14.7136    5.5899 C   0  0  0  0  0  0  0  0  0  0  0  0
   14.0960   13.7050    6.5109 O   0  0  0  0  0  0  0  0  0  0  0  0
   15.1750   13.8432    4.5188 C   0  0  2  0  0  0  0  0  0  0  0  0
   14.1227   13.1583    3.7697 O   0  0  0  0  0  0  0  0  0  0  0  0
   15.9460   12.8118    5.2808 C   0  0  1  0  0  0  0  0  0  0  0  0
   17.2317   13.2876    5.7798 O   0  0  0  0  0  0  0  0  0  0  0  0
   14.9750   12.5409    6.4214 C   0  0  2  0  0  0  0  0  0  0  0  0
   15.9129    7.5761    6.7699 N   0  0  0  0  0  0  0  0  0  0  0  0
   16.7017    8.6962    7.1399 C   0  0  0  0  0  0  0  0  0  0  0  0
   17.9205    8.5321    7.6751 N   0  0  0  0  0  0  0  0  0  0  0  0
   16.1990    9.9351    6.9405 N   0  0  0  0  0  0  0  0  0  0  0  0
   14.9755   10.0942    6.3996 C   0  0  0  0  0  0  0  0  0  0  0  0
   14.1921    9.0491    6.0455 C   0  0  0  0  0  0  0  0  0  0  0  0
   14.6250    7.7928    6.2093 C   0  0  0  0  0  0  0  0  0  0  0  0
   13.9249    6.8224    5.8882 O   0  0  0  0  0  0  0  0  0  0  0  0
   13.0555    9.5378    5.5427 N   0  0  0  0  0  0  0  0  0  0  0  0
   13.1237   10.8641    5.5922 C   0  0  0  0  0  0  0  0  0  0  0  0
   14.3100   11.2128    6.1363 N   0  0  0  0  0  0  0  0  0  0  0  0
   17.7828   13.5556    5.0407 H   0  0  0  0  0  0  0  0  0  0  0  0
   18.5347    9.3261    7.7858 H   0  0  0  0  0  0  0  0  0  0  0  0
   18.2238    7.6142    7.9675 H   0  0  0  0  0  0  0  0  0  0  0  0
  1  2  1  6
  1  3  2  0
  1  7  1  0
  4  5  1  0
  4  6  1  0
  5 10  1  0
  6  7  1  1
  6  8  1  0
  8  9  1  1
  8 10  1  0
  9 22  1  0
 10 21  1  6
 11 12  1  0
 11 17  1  0
 12 13  1  0
 12 14  2  0
 13 23  1  0
 13 24  1  0
 14 15  1  0
 15 16  2  0
 15 21  1  0
 16 17  1  0
 16 19  1  0
 17 18  2  0
 19 20  2  0
 20 21  1  0
M  CHG  1   2  -1
M  END
>  <CHROM.0>  (32) 
-61.45838527

>  <CHROM.1>  (32) 
65.23776174,64.79730888,-60.60713974,-161.86909456,169.40174590,14.66139418
11.44561120,5.29915718,1.94490391,-0.62533247,-0.30801350

>  <Name>  (32) 
7lng_h

>  <RI>  (32) 
8.5107e+06

>  <Rbt.Current_Directory>  (32) 
/home/jta30/NA_complexes/7lng

>  <Rbt.Executable>  (32) 
rbdock ($Id: //depot/dev/client3/rdock/2013.1/src/exe/rbdock.cxx#4 $)

>  <Rbt.Library>  (32) 
libRbt.so (2013.1, Build901 2013/11/27)

>  <Rbt.Parameter_File>  (32) 
/software/dev_tools/swtree/cs400_centos7.2_pe2016-08/rdock/2013.1/centos7.2_conda/build/data/scripts/dock.prm

>  <Rbt.Receptor>  (32) 
7lng.prm

>  <SCORE>  (32) 
-15.2489

>  <SCORE.INTER>  (32) 
-10.8265

>  <SCORE.INTER.CONST>  (32) 
1

>  <SCORE.INTER.POLAR>  (32) 
-1.0198

>  <SCORE.INTER.REPUL>  (32) 
0

>  <SCORE.INTER.ROT>  (32) 
4

>  <SCORE.INTER.VDW>  (32) 
-16.7592

>  <SCORE.INTER.norm>  (32) 
-0.515549

>  <SCORE.INTRA>  (32) 
-4.39667

>  <SCORE.INTRA.DIHEDRAL>  (32) 
-8.07196

>  <SCORE.INTRA.DIHEDRAL.0>  (32) 
10.6104

>  <SCORE.INTRA.POLAR>  (32) 
0

>  <SCORE.INTRA.POLAR.0>  (32) 
0

>  <SCORE.INTRA.REPUL>  (32) 
0

>  <SCORE.INTRA.REPUL.0>  (32) 
0

>  <SCORE.INTRA.VDW>  (32) 
-0.360697

>  <SCORE.INTRA.VDW.0>  (32) 
-1.96818

>  <SCORE.INTRA.norm>  (32) 
-0.209365

>  <SCORE.RESTR>  (32) 
0

>  <SCORE.RESTR.CAVITY>  (32) 
0

>  <SCORE.RESTR.norm>  (32) 
0

>  <SCORE.SYSTEM>  (32) 
-0.025705

>  <SCORE.SYSTEM.CONST>  (32) 
0

>  <SCORE.SYSTEM.DIHEDRAL>  (32) 
0.279416

>  <SCORE.SYSTEM.VDW>  (32) 
-0.165413

>  <SCORE.SYSTEM.norm>  (32) 
-0.00122405

>  <SCORE.heavy>  (32) 
21

>  <SCORE.norm>  (32) 
-0.726139

>  <Predicted_Rank>  (32) 
32.0

$$$$
7lng_h
     RDKit          3D

 24 26  0  0  0  0  0  0  0  0999 V2000
   20.7701   10.1539    6.9827 P   0  0  1  0  0  0  0  0  0  0  0  0
   20.4385    9.8200    8.3891 O   0  0  0  0  0  0  0  0  0  0  0  0
   20.8883    9.0928    5.9504 O   0  0  0  0  0  0  0  0  0  0  0  0
   18.3618   13.2186    6.1618 C   0  0  0  0  0  0  0  0  0  0  0  0
   17.1769   12.4160    6.0949 O   0  0  0  0  0  0  0  0  0  0  0  0
   19.2082   12.3739    7.1067 C   0  0  2  0  0  0  0  0  0  0  0  0
   19.6689   11.1849    6.3914 O   0  0  0  0  0  0  0  0  0  0  0  0
   18.2589   11.9315    8.1753 C   0  0  1  0  0  0  0  0  0  0  0  0
   18.0004   12.9471    9.1903 O   0  0  0  0  0  0  0  0  0  0  0  0
   17.0188   11.6596    7.3353 C   0  0  2  0  0  0  0  0  0  0  0  0
   13.6629    8.1672    5.8551 N   0  0  0  0  0  0  0  0  0  0  0  0
   13.5800    9.5837    5.8709 C   0  0  0  0  0  0  0  0  0  0  0  0
   12.4714   10.2122    5.4528 N   0  0  0  0  0  0  0  0  0  0  0  0
   14.6433   10.2886    6.3179 N   0  0  0  0  0  0  0  0  0  0  0  0
   15.7531    9.6521    6.7398 C   0  0  0  0  0  0  0  0  0  0  0  0
   15.8707    8.3040    6.7282 C   0  0  0  0  0  0  0  0  0  0  0  0
   14.8570    7.5399    6.3031 C   0  0  0  0  0  0  0  0  0  0  0  0
   14.9430    6.3040    6.2881 O   0  0  0  0  0  0  0  0  0  0  0  0
   17.0779    7.9915    7.2063 N   0  0  0  0  0  0  0  0  0  0  0  0
   17.7067    9.1247    7.5007 C   0  0  0  0  0  0  0  0  0  0  0  0
   16.8913   10.1587    7.1995 N   0  0  0  0  0  0  0  0  0  0  0  0
   18.8339   13.2612    9.5487 H   0  0  0  0  0  0  0  0  0  0  0  0
   11.5822    9.7338    5.4711 H   0  0  0  0  0  0  0  0  0  0  0  0
   12.5261   11.1641    5.1197 H   0  0  0  0  0  0  0  0  0  0  0  0
  1  2  1  1
  1  3  2  0
  1  7  1  0
  4  5  1  0
  4  6  1  0
  5 10  1  0
  6  7  1  6
  6  8  1  0
  8  9  1  1
  8 10  1  0
  9 22  1  0
 10 21  1  6
 11 12  1  0
 11 17  1  0
 12 13  1  0
 12 14  2  0
 13 23  1  0
 13 24  1  0
 14 15  1  0
 15 16  2  0
 15 21  1  0
 16 17  1  0
 16 19  1  0
 17 18  2  0
 19 20  2  0
 20 21  1  0
M  CHG  1   2  -1
M  END
>  <CHROM.0>  (33) 
-61.83178618

>  <CHROM.1>  (33) 
46.69680723,170.60624665,-53.29929064,-73.78719753,24.30698262,17.28261881
10.14631284,6.83674823,-0.41894754,0.15393463,-3.02771647

>  <Name>  (33) 
7lng_h

>  <RI>  (33) 
8.5107e+06

>  <Rbt.Current_Directory>  (33) 
/home/jta30/NA_complexes/7lng

>  <Rbt.Executable>  (33) 
rbdock ($Id: //depot/dev/client3/rdock/2013.1/src/exe/rbdock.cxx#4 $)

>  <Rbt.Library>  (33) 
libRbt.so (2013.1, Build901 2013/11/27)

>  <Rbt.Parameter_File>  (33) 
/software/dev_tools/swtree/cs400_centos7.2_pe2016-08/rdock/2013.1/centos7.2_conda/build/data/scripts/dock.prm

>  <Rbt.Receptor>  (33) 
7lng.prm

>  <SCORE>  (33) 
-17.6953

>  <SCORE.INTER>  (33) 
-13.2431

>  <SCORE.INTER.CONST>  (33) 
1

>  <SCORE.INTER.POLAR>  (33) 
-1.64904

>  <SCORE.INTER.REPUL>  (33) 
0.000287587

>  <SCORE.INTER.ROT>  (33) 
4

>  <SCORE.INTER.VDW>  (33) 
-17.0378

>  <SCORE.INTER.norm>  (33) 
-0.630622

>  <SCORE.INTRA>  (33) 
-4.42688

>  <SCORE.INTRA.DIHEDRAL>  (33) 
-7.49528

>  <SCORE.INTRA.DIHEDRAL.0>  (33) 
10.6104

>  <SCORE.INTRA.POLAR>  (33) 
0

>  <SCORE.INTRA.POLAR.0>  (33) 
0

>  <SCORE.INTRA.REPUL>  (33) 
0

>  <SCORE.INTRA.REPUL.0>  (33) 
0

>  <SCORE.INTRA.VDW>  (33) 
-0.679241

>  <SCORE.INTRA.VDW.0>  (33) 
-1.96818

>  <SCORE.INTRA.norm>  (33) 
-0.210804

>  <SCORE.RESTR>  (33) 
0

>  <SCORE.RESTR.CAVITY>  (33) 
0

>  <SCORE.RESTR.norm>  (33) 
0

>  <SCORE.SYSTEM>  (33) 
-0.0253788

>  <SCORE.SYSTEM.CONST>  (33) 
0

>  <SCORE.SYSTEM.DIHEDRAL>  (33) 
0.285017

>  <SCORE.SYSTEM.VDW>  (33) 
-0.167888

>  <SCORE.SYSTEM.norm>  (33) 
-0.00120852

>  <SCORE.heavy>  (33) 
21

>  <SCORE.norm>  (33) 
-0.842634

>  <Predicted_Rank>  (33) 
33.0

$$$$
7lng_h
     RDKit          3D

 24 26  0  0  0  0  0  0  0  0999 V2000
   14.5285   13.9597    9.0458 P   0  0  1  0  0  0  0  0  0  0  0  0
   15.9266   13.6417    9.4249 O   0  0  0  0  0  0  0  0  0  0  0  0
   14.0053   15.3464    9.1396 O   0  0  0  0  0  0  0  0  0  0  0  0
   16.1796   14.5042    6.3802 C   0  0  0  0  0  0  0  0  0  0  0  0
   16.5919   13.1876    5.9938 O   0  0  0  0  0  0  0  0  0  0  0  0
   14.6655   14.3314    6.3576 C   0  0  2  0  0  0  0  0  0  0  0  0
   14.2662   13.5221    7.5079 O   0  0  0  0  0  0  0  0  0  0  0  0
   14.3914   13.5395    5.1180 C   0  0  1  0  0  0  0  0  0  0  0  0
   14.3962   14.3376    3.8966 O   0  0  0  0  0  0  0  0  0  0  0  0
   15.5669   12.5730    5.1528 C   0  0  2  0  0  0  0  0  0  0  0  0
   17.1315    8.3571    7.4827 N   0  0  0  0  0  0  0  0  0  0  0  0
   17.8256    9.5546    7.1695 C   0  0  0  0  0  0  0  0  0  0  0  0
   19.1191    9.7036    7.4909 N   0  0  0  0  0  0  0  0  0  0  0  0
   17.1551   10.5441    6.5382 N   0  0  0  0  0  0  0  0  0  0  0  0
   15.8567   10.3878    6.2148 C   0  0  0  0  0  0  0  0  0  0  0  0
   15.1613    9.2645    6.5079 C   0  0  0  0  0  0  0  0  0  0  0  0
   15.7601    8.2404    7.1283 C   0  0  0  0  0  0  0  0  0  0  0  0
   15.1424    7.2020    7.4023 O   0  0  0  0  0  0  0  0  0  0  0  0
   13.9143    9.4222    6.0565 N   0  0  0  0  0  0  0  0  0  0  0  0
   13.8299   10.6268    5.5014 C   0  0  0  0  0  0  0  0  0  0  0  0
   15.0315   11.2345    5.6100 N   0  0  0  0  0  0  0  0  0  0  0  0
   15.2540   14.7557    3.7906 H   0  0  0  0  0  0  0  0  0  0  0  0
   19.6772    8.8958    7.7274 H   0  0  0  0  0  0  0  0  0  0  0  0
   19.5349   10.6240    7.4962 H   0  0  0  0  0  0  0  0  0  0  0  0
  1  2  1  6
  1  3  2  0
  1  7  1  0
  4  5  1  0
  4  6  1  0
  5 10  1  0
  6  7  1  1
  6  8  1  0
  8  9  1  6
  8 10  1  0
  9 22  1  0
 10 21  1  1
 11 12  1  0
 11 17  1  0
 12 13  1  0
 12 14  2  0
 13 23  1  0
 13 24  1  0
 14 15  1  0
 15 16  2  0
 15 21  1  0
 16 17  1  0
 16 19  1  0
 17 18  2  0
 19 20  2  0
 20 21  1  0
M  CHG  1   2  -1
M  END
>  <CHROM.0>  (34) 
-61.37881118

>  <CHROM.1>  (34) 
-80.88562655,60.87796760,59.54210368,-34.64314689,16.52626071,15.49830075
11.81506441,6.87967741,-2.27608255,1.11314016,-2.42363512

>  <Name>  (34) 
7lng_h

>  <RI>  (34) 
8.5107e+06

>  <Rbt.Current_Directory>  (34) 
/home/jta30/NA_complexes/7lng

>  <Rbt.Executable>  (34) 
rbdock ($Id: //depot/dev/client3/rdock/2013.1/src/exe/rbdock.cxx#4 $)

>  <Rbt.Library>  (34) 
libRbt.so (2013.1, Build901 2013/11/27)

>  <Rbt.Parameter_File>  (34) 
/software/dev_tools/swtree/cs400_centos7.2_pe2016-08/rdock/2013.1/centos7.2_conda/build/data/scripts/dock.prm

>  <Rbt.Receptor>  (34) 
7lng.prm

>  <SCORE>  (34) 
-19.4191

>  <SCORE.INTER>  (34) 
-15.3567

>  <SCORE.INTER.CONST>  (34) 
1

>  <SCORE.INTER.POLAR>  (34) 
-2.55613

>  <SCORE.INTER.REPUL>  (34) 
0.121397

>  <SCORE.INTER.ROT>  (34) 
4

>  <SCORE.INTER.VDW>  (34) 
-16.6728

>  <SCORE.INTER.norm>  (34) 
-0.731269

>  <SCORE.INTRA>  (34) 
-4.03678

>  <SCORE.INTRA.DIHEDRAL>  (34) 
-8.08251

>  <SCORE.INTRA.DIHEDRAL.0>  (34) 
10.6104

>  <SCORE.INTRA.POLAR>  (34) 
0

>  <SCORE.INTRA.POLAR.0>  (34) 
0

>  <SCORE.INTRA.REPUL>  (34) 
0

>  <SCORE.INTRA.REPUL.0>  (34) 
0

>  <SCORE.INTRA.VDW>  (34) 
0.00447881

>  <SCORE.INTRA.VDW.0>  (34) 
-1.96818

>  <SCORE.INTRA.norm>  (34) 
-0.192227

>  <SCORE.RESTR>  (34) 
0

>  <SCORE.RESTR.CAVITY>  (34) 
0

>  <SCORE.RESTR.norm>  (34) 
0

>  <SCORE.SYSTEM>  (34) 
-0.0256867

>  <SCORE.SYSTEM.CONST>  (34) 
0

>  <SCORE.SYSTEM.DIHEDRAL>  (34) 
0.278386

>  <SCORE.SYSTEM.VDW>  (34) 
-0.16488

>  <SCORE.SYSTEM.norm>  (34) 
-0.00122317

>  <SCORE.heavy>  (34) 
21

>  <SCORE.norm>  (34) 
-0.92472

>  <Predicted_Rank>  (34) 
34.0

$$$$
7lng_h
     RDKit          3D

 24 26  0  0  0  0  0  0  0  0999 V2000
   13.4399   12.6747    2.8514 P   0  0  1  0  0  0  0  0  0  0  0  0
   13.7622   13.6076    1.7443 O   0  0  0  0  0  0  0  0  0  0  0  0
   14.2556   11.4567    3.0893 O   0  0  0  0  0  0  0  0  0  0  0  0
   14.2900   14.8139    6.1098 C   0  0  0  0  0  0  0  0  0  0  0  0
   14.1621   13.6693    6.9619 O   0  0  0  0  0  0  0  0  0  0  0  0
   14.6543   14.1339    4.7954 C   0  0  2  0  0  0  0  0  0  0  0  0
   13.4652   13.4712    4.2622 O   0  0  0  0  0  0  0  0  0  0  0  0
   15.6418   13.0759    5.1754 C   0  0  1  0  0  0  0  0  0  0  0  0
   16.9956   13.5802    5.3792 O   0  0  0  0  0  0  0  0  0  0  0  0
   15.0276   12.5939    6.4822 C   0  0  2  0  0  0  0  0  0  0  0  0
   15.9905    7.6298    6.7668 N   0  0  0  0  0  0  0  0  0  0  0  0
   16.7831    8.7496    7.1296 C   0  0  0  0  0  0  0  0  0  0  0  0
   18.0136    8.5854    7.6371 N   0  0  0  0  0  0  0  0  0  0  0  0
   16.2717    9.9882    6.9520 N   0  0  0  0  0  0  0  0  0  0  0  0
   15.0363   10.1475    6.4388 C   0  0  0  0  0  0  0  0  0  0  0  0
   14.2493    9.1025    6.0925 C   0  0  0  0  0  0  0  0  0  0  0  0
   14.6900    7.8466    6.2359 C   0  0  0  0  0  0  0  0  0  0  0  0
   13.9867    6.8763    5.9214 O   0  0  0  0  0  0  0  0  0  0  0  0
   13.1003    9.5914    5.6185 N   0  0  0  0  0  0  0  0  0  0  0  0
   13.1649   10.9175    5.6781 C   0  0  0  0  0  0  0  0  0  0  0  0
   14.3613   11.2658    6.1998 N   0  0  0  0  0  0  0  0  0  0  0  0
   17.5787   12.8509    5.6027 H   0  0  0  0  0  0  0  0  0  0  0  0
   18.2838    7.6946    8.0288 H   0  0  0  0  0  0  0  0  0  0  0  0
   18.6701    9.3529    7.6272 H   0  0  0  0  0  0  0  0  0  0  0  0
  1  2  1  6
  1  3  2  0
  1  7  1  0
  4  5  1  0
  4  6  1  0
  5 10  1  0
  6  7  1  1
  6  8  1  0
  8  9  1  1
  8 10  1  0
  9 22  1  0
 10 21  1  6
 11 12  1  0
 11 17  1  0
 12 13  1  0
 12 14  2  0
 13 23  1  0
 13 24  1  0
 14 15  1  0
 15 16  2  0
 15 21  1  0
 16 17  1  0
 16 19  1  0
 17 18  2  0
 19 20  2  0
 20 21  1  0
M  CHG  1   2  -1
M  END
>  <CHROM.0>  (35) 
-177.36947058

>  <CHROM.1>  (35) 
-61.34076341,178.09353671,-178.90362727,-145.54270483,-18.79890814,14.76688254
11.27866163,5.40055084,1.96522565,-0.83049145,-0.18836253

>  <Name>  (35) 
7lng_h

>  <RI>  (35) 
8.5107e+06

>  <Rbt.Current_Directory>  (35) 
/home/jta30/NA_complexes/7lng

>  <Rbt.Executable>  (35) 
rbdock ($Id: //depot/dev/client3/rdock/2013.1/src/exe/rbdock.cxx#4 $)

>  <Rbt.Library>  (35) 
libRbt.so (2013.1, Build901 2013/11/27)

>  <Rbt.Parameter_File>  (35) 
/software/dev_tools/swtree/cs400_centos7.2_pe2016-08/rdock/2013.1/centos7.2_conda/build/data/scripts/dock.prm

>  <Rbt.Receptor>  (35) 
7lng.prm

>  <SCORE>  (35) 
-16.1726

>  <SCORE.INTER>  (35) 
-10.7424

>  <SCORE.INTER.CONST>  (35) 
1

>  <SCORE.INTER.POLAR>  (35) 
-1.0198

>  <SCORE.INTER.REPUL>  (35) 
0.00546621

>  <SCORE.INTER.ROT>  (35) 
4

>  <SCORE.INTER.VDW>  (35) 
-16.7024

>  <SCORE.INTER.norm>  (35) 
-0.511543

>  <SCORE.INTRA>  (35) 
-5.38692

>  <SCORE.INTRA.DIHEDRAL>  (35) 
-8.27027

>  <SCORE.INTRA.DIHEDRAL.0>  (35) 
10.6104

>  <SCORE.INTRA.POLAR>  (35) 
0

>  <SCORE.INTRA.POLAR.0>  (35) 
0

>  <SCORE.INTRA.REPUL>  (35) 
0

>  <SCORE.INTRA.REPUL.0>  (35) 
0

>  <SCORE.INTRA.VDW>  (35) 
-1.25179

>  <SCORE.INTRA.VDW.0>  (35) 
-1.96818

>  <SCORE.INTRA.norm>  (35) 
-0.25652

>  <SCORE.RESTR>  (35) 
0

>  <SCORE.RESTR.CAVITY>  (35) 
0

>  <SCORE.RESTR.norm>  (35) 
0

>  <SCORE.SYSTEM>  (35) 
-0.0433267

>  <SCORE.SYSTEM.CONST>  (35) 
0

>  <SCORE.SYSTEM.DIHEDRAL>  (35) 
0.30125

>  <SCORE.SYSTEM.VDW>  (35) 
-0.193952

>  <SCORE.SYSTEM.norm>  (35) 
-0.00206318

>  <SCORE.heavy>  (35) 
21

>  <SCORE.norm>  (35) 
-0.770126

>  <Predicted_Rank>  (35) 
35.0

$$$$
7lng_h
     RDKit          3D

 24 26  0  0  0  0  0  0  0  0999 V2000
   18.1085    6.4634    4.3157 P   0  0  1  0  0  0  0  0  0  0  0  0
   17.9936    7.9204    4.0638 O   0  0  0  0  0  0  0  0  0  0  0  0
   19.2656    5.9029    5.0590 O   0  0  0  0  0  0  0  0  0  0  0  0
   14.4789    5.5118    5.6719 C   0  0  0  0  0  0  0  0  0  0  0  0
   14.5787    6.4689    6.7334 O   0  0  0  0  0  0  0  0  0  0  0  0
   15.4334    6.1312    4.6580 C   0  0  2  0  0  0  0  0  0  0  0  0
   16.8055    5.9445    5.1272 O   0  0  0  0  0  0  0  0  0  0  0  0
   15.1282    7.5956    4.6934 C   0  0  1  0  0  0  0  0  0  0  0  0
   13.9459    7.9692    3.9245 O   0  0  0  0  0  0  0  0  0  0  0  0
   14.9006    7.7853    6.1865 C   0  0  2  0  0  0  0  0  0  0  0  0
   16.5990   12.4218    7.3127 N   0  0  0  0  0  0  0  0  0  0  0  0
   15.3449   11.9922    6.8061 C   0  0  0  0  0  0  0  0  0  0  0  0
   14.3729   12.8761    6.5370 N   0  0  0  0  0  0  0  0  0  0  0  0
   15.1498   10.6707    6.5991 N   0  0  0  0  0  0  0  0  0  0  0  0
   16.1308    9.7875    6.8681 C   0  0  0  0  0  0  0  0  0  0  0  0
   17.3342   10.1608    7.3620 C   0  0  0  0  0  0  0  0  0  0  0  0
   17.6015   11.4529    7.5885 C   0  0  0  0  0  0  0  0  0  0  0  0
   18.6980   11.8158    8.0368 O   0  0  0  0  0  0  0  0  0  0  0  0
   18.0762    9.0609    7.5145 N   0  0  0  0  0  0  0  0  0  0  0  0
   17.3452    8.0186    7.1329 C   0  0  0  0  0  0  0  0  0  0  0  0
   16.1314    8.4654    6.7433 N   0  0  0  0  0  0  0  0  0  0  0  0
   14.0866    7.7591    2.9982 H   0  0  0  0  0  0  0  0  0  0  0  0
   14.2556   13.6916    7.1212 H   0  0  0  0  0  0  0  0  0  0  0  0
   13.7582   12.7261    5.7497 H   0  0  0  0  0  0  0  0  0  0  0  0
  1  2  1  1
  1  3  2  0
  1  7  1  0
  4  5  1  0
  4  6  1  0
  5 10  1  0
  6  7  1  1
  6  8  1  0
  8  9  1  6
  8 10  1  0
  9 22  1  0
 10 21  1  1
 11 12  1  0
 11 17  1  0
 12 13  1  0
 12 14  2  0
 13 23  1  0
 13 24  1  0
 14 15  1  0
 15 16  2  0
 15 21  1  0
 16 17  1  0
 16 19  1  0
 17 18  2  0
 19 20  2  0
 20 21  1  0
M  CHG  1   2  -1
M  END
>  <CHROM.0>  (36) 
-61.88001847

>  <CHROM.1>  (36) 
55.94016900,179.75598543,-62.26240273,-145.52902927,-35.57409212,16.44484583
8.60609094,5.98473566,-1.53188975,-0.12524309,0.41532840

>  <Name>  (36) 
7lng_h

>  <RI>  (36) 
8.5107e+06

>  <Rbt.Current_Directory>  (36) 
/home/jta30/NA_complexes/7lng

>  <Rbt.Executable>  (36) 
rbdock ($Id: //depot/dev/client3/rdock/2013.1/src/exe/rbdock.cxx#4 $)

>  <Rbt.Library>  (36) 
libRbt.so (2013.1, Build901 2013/11/27)

>  <Rbt.Parameter_File>  (36) 
/software/dev_tools/swtree/cs400_centos7.2_pe2016-08/rdock/2013.1/centos7.2_conda/build/data/scripts/dock.prm

>  <Rbt.Receptor>  (36) 
7lng.prm

>  <SCORE>  (36) 
-16.9836

>  <SCORE.INTER>  (36) 
-11.5406

>  <SCORE.INTER.CONST>  (36) 
1

>  <SCORE.INTER.POLAR>  (36) 
-0.866235

>  <SCORE.INTER.REPUL>  (36) 
0

>  <SCORE.INTER.ROT>  (36) 
4

>  <SCORE.INTER.VDW>  (36) 
-17.9954

>  <SCORE.INTER.norm>  (36) 
-0.549553

>  <SCORE.INTRA>  (36) 
-5.41774

>  <SCORE.INTRA.DIHEDRAL>  (36) 
-8.28595

>  <SCORE.INTRA.DIHEDRAL.0>  (36) 
10.6104

>  <SCORE.INTRA.POLAR>  (36) 
0

>  <SCORE.INTRA.POLAR.0>  (36) 
0

>  <SCORE.INTRA.REPUL>  (36) 
0

>  <SCORE.INTRA.REPUL.0>  (36) 
0

>  <SCORE.INTRA.VDW>  (36) 
-1.27477

>  <SCORE.INTRA.VDW.0>  (36) 
-1.96818

>  <SCORE.INTRA.norm>  (36) 
-0.257988

>  <SCORE.RESTR>  (36) 
0

>  <SCORE.RESTR.CAVITY>  (36) 
0

>  <SCORE.RESTR.norm>  (36) 
0

>  <SCORE.SYSTEM>  (36) 
-0.0252872

>  <SCORE.SYSTEM.CONST>  (36) 
0

>  <SCORE.SYSTEM.DIHEDRAL>  (36) 
0.285833

>  <SCORE.SYSTEM.VDW>  (36) 
-0.168204

>  <SCORE.SYSTEM.norm>  (36) 
-0.00120415

>  <SCORE.heavy>  (36) 
21

>  <SCORE.norm>  (36) 
-0.808745

>  <Predicted_Rank>  (36) 
36.0

$$$$
7lng_h
     RDKit          3D

 24 26  0  0  0  0  0  0  0  0999 V2000
   14.7769    7.2013    5.9048 P   0  0  1  0  0  0  0  0  0  0  0  0
   15.7827    7.1699    4.8153 O   0  0  0  0  0  0  0  0  0  0  0  0
   15.1171    6.7423    7.2756 O   0  0  0  0  0  0  0  0  0  0  0  0
   15.9566   10.0316    5.0151 C   0  0  0  0  0  0  0  0  0  0  0  0
   14.9714   10.5124    4.0927 O   0  0  0  0  0  0  0  0  0  0  0  0
   15.1018    9.8746    6.2671 C   0  0  2  0  0  0  0  0  0  0  0  0
   14.2291    8.7137    6.0995 O   0  0  0  0  0  0  0  0  0  0  0  0
   14.2420   11.0988    6.2966 C   0  0  1  0  0  0  0  0  0  0  0  0
   14.9203   12.2823    6.8142 O   0  0  0  0  0  0  0  0  0  0  0  0
   13.9309   11.2428    4.8135 C   0  0  2  0  0  0  0  0  0  0  0  0
    9.7997   12.4254    2.1330 N   0  0  0  0  0  0  0  0  0  0  0  0
   11.0926   13.0100    2.1487 C   0  0  0  0  0  0  0  0  0  0  0  0
   11.3809   14.0621    1.3686 N   0  0  0  0  0  0  0  0  0  0  0  0
   12.0299   12.4842    2.9687 N   0  0  0  0  0  0  0  0  0  0  0  0
   11.7339   11.4293    3.7526 C   0  0  0  0  0  0  0  0  0  0  0  0
   10.5155   10.8404    3.7550 C   0  0  0  0  0  0  0  0  0  0  0  0
    9.5358   11.3091    2.9722 C   0  0  0  0  0  0  0  0  0  0  0  0
    8.4124   10.7867    2.9623 O   0  0  0  0  0  0  0  0  0  0  0  0
   10.5453    9.8353    4.6340 N   0  0  0  0  0  0  0  0  0  0  0  0
   11.7638    9.7908    5.1627 C   0  0  0  0  0  0  0  0  0  0  0  0
   12.5086   10.7715    4.6074 N   0  0  0  0  0  0  0  0  0  0  0  0
   14.3114   13.0245    6.8180 H   0  0  0  0  0  0  0  0  0  0  0  0
   11.5794   14.9605    1.7851 H   0  0  0  0  0  0  0  0  0  0  0  0
   11.3996   13.9557    0.3644 H   0  0  0  0  0  0  0  0  0  0  0  0
  1  2  1  6
  1  3  2  0
  1  7  1  0
  4  5  1  0
  4  6  1  0
  5 10  1  0
  6  7  1  6
  6  8  1  0
  8  9  1  6
  8 10  1  0
  9 22  1  0
 10 21  1  1
 11 12  1  0
 11 17  1  0
 12 13  1  0
 12 14  2  0
 13 23  1  0
 13 24  1  0
 14 15  1  0
 15 16  2  0
 15 21  1  0
 16 17  1  0
 16 19  1  0
 17 18  2  0
 19 20  2  0
 20 21  1  0
M  CHG  1   2  -1
M  END
>  <CHROM.0>  (37) 
-176.83510564

>  <CHROM.1>  (37) 
-51.29924210,61.97767975,-179.16312404,-99.56211523,113.26768630,12.96996543
10.33448836,4.58288667,0.75944075,0.37900882,2.80114725

>  <Name>  (37) 
7lng_h

>  <RI>  (37) 
8.5107e+06

>  <Rbt.Current_Directory>  (37) 
/home/jta30/NA_complexes/7lng

>  <Rbt.Executable>  (37) 
rbdock ($Id: //depot/dev/client3/rdock/2013.1/src/exe/rbdock.cxx#4 $)

>  <Rbt.Library>  (37) 
libRbt.so (2013.1, Build901 2013/11/27)

>  <Rbt.Parameter_File>  (37) 
/software/dev_tools/swtree/cs400_centos7.2_pe2016-08/rdock/2013.1/centos7.2_conda/build/data/scripts/dock.prm

>  <Rbt.Receptor>  (37) 
7lng.prm

>  <SCORE>  (37) 
-15.3756

>  <SCORE.INTER>  (37) 
-11.7472

>  <SCORE.INTER.CONST>  (37) 
1

>  <SCORE.INTER.POLAR>  (37) 
-1.57688

>  <SCORE.INTER.REPUL>  (37) 
0

>  <SCORE.INTER.ROT>  (37) 
4

>  <SCORE.INTER.VDW>  (37) 
-15.7858

>  <SCORE.INTER.norm>  (37) 
-0.559392

>  <SCORE.INTRA>  (37) 
-3.588

>  <SCORE.INTRA.DIHEDRAL>  (37) 
-7.91334

>  <SCORE.INTRA.DIHEDRAL.0>  (37) 
10.6104

>  <SCORE.INTRA.POLAR>  (37) 
0

>  <SCORE.INTRA.POLAR.0>  (37) 
0

>  <SCORE.INTRA.REPUL>  (37) 
0

>  <SCORE.INTRA.REPUL.0>  (37) 
0

>  <SCORE.INTRA.VDW>  (37) 
0.368664

>  <SCORE.INTRA.VDW.0>  (37) 
-1.96818

>  <SCORE.INTRA.norm>  (37) 
-0.170857

>  <SCORE.RESTR>  (37) 
0

>  <SCORE.RESTR.CAVITY>  (37) 
0

>  <SCORE.RESTR.norm>  (37) 
0

>  <SCORE.SYSTEM>  (37) 
-0.0403218

>  <SCORE.SYSTEM.CONST>  (37) 
0

>  <SCORE.SYSTEM.DIHEDRAL>  (37) 
0.315333

>  <SCORE.SYSTEM.VDW>  (37) 
-0.197988

>  <SCORE.SYSTEM.norm>  (37) 
-0.00192009

>  <SCORE.heavy>  (37) 
21

>  <SCORE.norm>  (37) 
-0.732169

>  <Predicted_Rank>  (37) 
37.0

$$$$
7lng_h
     RDKit          3D

 24 26  0  0  0  0  0  0  0  0999 V2000
   18.6602    9.2474    7.4215 P   0  0  1  0  0  0  0  0  0  0  0  0
   19.3239    8.9953    6.1194 O   0  0  0  0  0  0  0  0  0  0  0  0
   19.1872   10.2648    8.3663 O   0  0  0  0  0  0  0  0  0  0  0  0
   17.3089   11.5292    5.6210 C   0  0  0  0  0  0  0  0  0  0  0  0
   16.5305   10.7834    4.6774 O   0  0  0  0  0  0  0  0  0  0  0  0
   16.6864   11.0479    6.9262 C   0  0  2  0  0  0  0  0  0  0  0  0
   17.1163    9.6729    7.1747 O   0  0  0  0  0  0  0  0  0  0  0  0
   15.2137   11.0310    6.6618 C   0  0  1  0  0  0  0  0  0  0  0  0
   14.5838   12.3437    6.7552 O   0  0  0  0  0  0  0  0  0  0  0  0
   15.2051   10.5130    5.2304 C   0  0  2  0  0  0  0  0  0  0  0  0
   11.0050    7.6930    4.9922 N   0  0  0  0  0  0  0  0  0  0  0  0
   11.1859    9.0965    4.8855 C   0  0  0  0  0  0  0  0  0  0  0  0
   10.1384    9.9122    4.6957 N   0  0  0  0  0  0  0  0  0  0  0  0
   12.4385    9.5958    4.9803 N   0  0  0  0  0  0  0  0  0  0  0  0
   13.4867    8.7721    5.1742 C   0  0  0  0  0  0  0  0  0  0  0  0
   13.3520    7.4289    5.2694 C   0  0  0  0  0  0  0  0  0  0  0  0
   12.1415    6.8628    5.1894 C   0  0  0  0  0  0  0  0  0  0  0  0
   11.9963    5.6356    5.2778 O   0  0  0  0  0  0  0  0  0  0  0  0
   14.5658    6.9056    5.4606 N   0  0  0  0  0  0  0  0  0  0  0  0
   15.4436    7.9034    5.4735 C   0  0  0  0  0  0  0  0  0  0  0  0
   14.7778    9.0632    5.2825 N   0  0  0  0  0  0  0  0  0  0  0  0
   13.6628   12.2764    6.4925 H   0  0  0  0  0  0  0  0  0  0  0  0
    9.2387    9.6793    5.0909 H   0  0  0  0  0  0  0  0  0  0  0  0
   10.2497   10.7596    4.1575 H   0  0  0  0  0  0  0  0  0  0  0  0
  1  2  1  6
  1  3  2  0
  1  7  1  0
  4  5  1  0
  4  6  1  0
  5 10  1  0
  6  7  1  6
  6  8  1  0
  8  9  1  6
  8 10  1  0
  9 22  1  0
 10 21  1  1
 11 12  1  0
 11 17  1  0
 12 13  1  0
 12 14  2  0
 13 23  1  0
 13 24  1  0
 14 15  1  0
 15 16  2  0
 15 21  1  0
 16 17  1  0
 16 19  1  0
 17 18  2  0
 19 20  2  0
 20 21  1  0
M  CHG  1   2  -1
M  END
>  <CHROM.0>  (38) 
59.25966850

>  <CHROM.1>  (38) 
-86.75876771,63.31407909,174.53903318,-149.60814838,32.44429052,15.06102981
9.30624658,5.91254680,-0.29702105,0.28406106,-3.10240356

>  <Name>  (38) 
7lng_h

>  <RI>  (38) 
8.5107e+06

>  <Rbt.Current_Directory>  (38) 
/home/jta30/NA_complexes/7lng

>  <Rbt.Executable>  (38) 
rbdock ($Id: //depot/dev/client3/rdock/2013.1/src/exe/rbdock.cxx#4 $)

>  <Rbt.Library>  (38) 
libRbt.so (2013.1, Build901 2013/11/27)

>  <Rbt.Parameter_File>  (38) 
/software/dev_tools/swtree/cs400_centos7.2_pe2016-08/rdock/2013.1/centos7.2_conda/build/data/scripts/dock.prm

>  <Rbt.Receptor>  (38) 
7lng.prm

>  <SCORE>  (38) 
-14.6313

>  <SCORE.INTER>  (38) 
-11.5216

>  <SCORE.INTER.CONST>  (38) 
1

>  <SCORE.INTER.POLAR>  (38) 
-0.916515

>  <SCORE.INTER.REPUL>  (38) 
0

>  <SCORE.INTER.ROT>  (38) 
4

>  <SCORE.INTER.VDW>  (38) 
-17.8055

>  <SCORE.INTER.norm>  (38) 
-0.548649

>  <SCORE.INTRA>  (38) 
-4.25196

>  <SCORE.INTRA.DIHEDRAL>  (38) 
-7.70774

>  <SCORE.INTRA.DIHEDRAL.0>  (38) 
10.6104

>  <SCORE.INTRA.POLAR>  (38) 
0

>  <SCORE.INTRA.POLAR.0>  (38) 
0

>  <SCORE.INTRA.REPUL>  (38) 
0

>  <SCORE.INTRA.REPUL.0>  (38) 
0

>  <SCORE.INTRA.VDW>  (38) 
-0.39809

>  <SCORE.INTRA.VDW.0>  (38) 
-1.96818

>  <SCORE.INTRA.norm>  (38) 
-0.202474

>  <SCORE.RESTR>  (38) 
0.5536

>  <SCORE.RESTR.CAVITY>  (38) 
0.5536

>  <SCORE.RESTR.norm>  (38) 
0.0263619

>  <SCORE.SYSTEM>  (38) 
0.588717

>  <SCORE.SYSTEM.CONST>  (38) 
0

>  <SCORE.SYSTEM.DIHEDRAL>  (38) 
0.272213

>  <SCORE.SYSTEM.VDW>  (38) 
0.452611

>  <SCORE.SYSTEM.norm>  (38) 
0.0280342

>  <SCORE.heavy>  (38) 
21

>  <SCORE.norm>  (38) 
-0.696727

>  <Predicted_Rank>  (38) 
38.0

$$$$
7lng_h
     RDKit          3D

 24 26  0  0  0  0  0  0  0  0999 V2000
   15.0874    6.0911    4.8412 P   0  0  1  0  0  0  0  0  0  0  0  0
   15.4426    4.8057    4.1922 O   0  0  0  0  0  0  0  0  0  0  0  0
   14.9590    6.1949    6.3171 O   0  0  0  0  0  0  0  0  0  0  0  0
   18.0370    8.7697    4.6333 C   0  0  0  0  0  0  0  0  0  0  0  0
   17.0999    9.8533    4.6514 O   0  0  0  0  0  0  0  0  0  0  0  0
   17.2223    7.6951    5.3436 C   0  0  2  0  0  0  0  0  0  0  0  0
   16.1737    7.2244    4.4401 O   0  0  0  0  0  0  0  0  0  0  0  0
   16.5649    8.4074    6.4834 C   0  0  1  0  0  0  0  0  0  0  0  0
   17.4401    8.6129    7.6325 O   0  0  0  0  0  0  0  0  0  0  0  0
   16.2170    9.7271    5.8091 C   0  0  2  0  0  0  0  0  0  0  0  0
   12.7062   12.3776    3.2993 N   0  0  0  0  0  0  0  0  0  0  0  0
   14.1081   12.5682    3.4091 C   0  0  0  0  0  0  0  0  0  0  0  0
   14.7128   13.5942    2.7923 N   0  0  0  0  0  0  0  0  0  0  0  0
   14.8233   11.6931    4.1507 N   0  0  0  0  0  0  0  0  0  0  0  0
   14.2103   10.6662    4.7708 C   0  0  0  0  0  0  0  0  0  0  0  0
   12.8779   10.4481    4.6787 C   0  0  0  0  0  0  0  0  0  0  0  0
   12.1044   11.2757    3.9654 C   0  0  0  0  0  0  0  0  0  0  0  0
   10.8821   11.0959    3.8716 O   0  0  0  0  0  0  0  0  0  0  0  0
   12.5869    9.3641    5.4025 N   0  0  0  0  0  0  0  0  0  0  0  0
   13.7190    8.9074    5.9279 C   0  0  0  0  0  0  0  0  0  0  0  0
   14.7314    9.7065    5.5264 N   0  0  0  0  0  0  0  0  0  0  0  0
   17.7530    7.7636    7.9527 H   0  0  0  0  0  0  0  0  0  0  0  0
   14.8023   13.5969    1.7864 H   0  0  0  0  0  0  0  0  0  0  0  0
   15.0785   14.3641    3.3341 H   0  0  0  0  0  0  0  0  0  0  0  0
  1  2  1  1
  1  3  2  0
  1  7  1  0
  4  5  1  0
  4  6  1  0
  5 10  1  0
  6  7  1  6
  6  8  1  0
  8  9  1  1
  8 10  1  0
  9 22  1  0
 10 21  1  6
 11 12  1  0
 11 17  1  0
 12 13  1  0
 12 14  2  0
 13 23  1  0
 13 24  1  0
 14 15  1  0
 15 16  2  0
 15 21  1  0
 16 17  1  0
 16 19  1  0
 17 18  2  0
 19 20  2  0
 20 21  1  0
M  CHG  1   2  -1
M  END
>  <CHROM.0>  (39) 
60.82597454

>  <CHROM.1>  (39) 
-104.10135815,-179.24298875,-58.95466366,-51.18944918,-70.71749824,14.91387558
9.22889446,4.87024644,1.05043933,0.21556145,2.94315633

>  <Name>  (39) 
7lng_h

>  <RI>  (39) 
8.5107e+06

>  <Rbt.Current_Directory>  (39) 
/home/jta30/NA_complexes/7lng

>  <Rbt.Executable>  (39) 
rbdock ($Id: //depot/dev/client3/rdock/2013.1/src/exe/rbdock.cxx#4 $)

>  <Rbt.Library>  (39) 
libRbt.so (2013.1, Build901 2013/11/27)

>  <Rbt.Parameter_File>  (39) 
/software/dev_tools/swtree/cs400_centos7.2_pe2016-08/rdock/2013.1/centos7.2_conda/build/data/scripts/dock.prm

>  <Rbt.Receptor>  (39) 
7lng.prm

>  <SCORE>  (39) 
-16.4134

>  <SCORE.INTER>  (39) 
-13.2421

>  <SCORE.INTER.CONST>  (39) 
1

>  <SCORE.INTER.POLAR>  (39) 
-2.94044

>  <SCORE.INTER.REPUL>  (39) 
0.0393124

>  <SCORE.INTER.ROT>  (39) 
4

>  <SCORE.INTER.VDW>  (39) 
-12.8411

>  <SCORE.INTER.norm>  (39) 
-0.630574

>  <SCORE.INTRA>  (39) 
-3.7621

>  <SCORE.INTRA.DIHEDRAL>  (39) 
-7.1752

>  <SCORE.INTRA.DIHEDRAL.0>  (39) 
10.6104

>  <SCORE.INTRA.POLAR>  (39) 
0

>  <SCORE.INTRA.POLAR.0>  (39) 
0

>  <SCORE.INTRA.REPUL>  (39) 
0

>  <SCORE.INTRA.REPUL.0>  (39) 
0

>  <SCORE.INTRA.VDW>  (39) 
-0.174497

>  <SCORE.INTRA.VDW.0>  (39) 
-1.96818

>  <SCORE.INTRA.norm>  (39) 
-0.179147

>  <SCORE.RESTR>  (39) 
0

>  <SCORE.RESTR.CAVITY>  (39) 
0

>  <SCORE.RESTR.norm>  (39) 
0

>  <SCORE.SYSTEM>  (39) 
0.590774

>  <SCORE.SYSTEM.CONST>  (39) 
0

>  <SCORE.SYSTEM.DIHEDRAL>  (39) 
0.272825

>  <SCORE.SYSTEM.VDW>  (39) 
0.454362

>  <SCORE.SYSTEM.norm>  (39) 
0.0281321

>  <SCORE.heavy>  (39) 
21

>  <SCORE.norm>  (39) 
-0.781589

>  <Predicted_Rank>  (39) 
39.0

$$$$
7lng_h
     RDKit          3D

 24 26  0  0  0  0  0  0  0  0999 V2000
   17.0129   11.4895    4.5749 P   0  0  1  0  0  0  0  0  0  0  0  0
   16.5042   11.6607    5.9574 O   0  0  0  0  0  0  0  0  0  0  0  0
   17.3356   12.6645    3.7259 O   0  0  0  0  0  0  0  0  0  0  0  0
   19.5878   11.3580    6.5636 C   0  0  0  0  0  0  0  0  0  0  0  0
   19.6077   10.0041    7.0318 O   0  0  0  0  0  0  0  0  0  0  0  0
   19.6617   11.1255    5.0592 C   0  0  2  0  0  0  0  0  0  0  0  0
   18.3737   10.6102    4.5980 O   0  0  0  0  0  0  0  0  0  0  0  0
   20.6799   10.0420    4.8912 C   0  0  1  0  0  0  0  0  0  0  0  0
   22.0587   10.5135    4.9643 O   0  0  0  0  0  0  0  0  0  0  0  0
   20.3319    9.1610    6.0828 C   0  0  2  0  0  0  0  0  0  0  0  0
   15.6410    7.2618    5.8862 N   0  0  0  0  0  0  0  0  0  0  0  0
   16.1265    8.4760    6.4372 C   0  0  0  0  0  0  0  0  0  0  0  0
   15.2945    9.3398    7.0375 N   0  0  0  0  0  0  0  0  0  0  0  0
   17.4481    8.7447    6.3452 N   0  0  0  0  0  0  0  0  0  0  0  0
   18.2799    7.8720    5.7439 C   0  0  0  0  0  0  0  0  0  0  0  0
   17.8497    6.7108    5.1983 C   0  0  0  0  0  0  0  0  0  0  0  0
   16.5550    6.3751    5.2550 C   0  0  0  0  0  0  0  0  0  0  0  0
   16.1414    5.3150    4.7650 O   0  0  0  0  0  0  0  0  0  0  0  0
   18.9095    6.0773    4.6891 N   0  0  0  0  0  0  0  0  0  0  0  0
   19.9802    6.8348    4.9033 C   0  0  0  0  0  0  0  0  0  0  0  0
   19.5904    7.9568    5.5467 N   0  0  0  0  0  0  0  0  0  0  0  0
   22.2131   11.1604    4.2718 H   0  0  0  0  0  0  0  0  0  0  0  0
   14.7011    9.0276    7.7927 H   0  0  0  0  0  0  0  0  0  0  0  0
   15.2617   10.3026    6.7341 H   0  0  0  0  0  0  0  0  0  0  0  0
  1  2  1  1
  1  3  2  0
  1  7  1  0
  4  5  1  0
  4  6  1  0
  5 10  1  0
  6  7  1  1
  6  8  1  0
  8  9  1  1
  8 10  1  0
  9 22  1  0
 10 21  1  6
 11 12  1  0
 11 17  1  0
 12 13  1  0
 12 14  2  0
 13 23  1  0
 13 24  1  0
 14 15  1  0
 15 16  2  0
 15 21  1  0
 16 17  1  0
 16 19  1  0
 17 18  2  0
 19 20  2  0
 20 21  1  0
M  CHG  1   2  -1
M  END
>  <CHROM.0>  (40) 
-62.39266031

>  <CHROM.1>  (40) 
-73.77582564,68.60362514,-59.94035055,12.99870587,54.51482163,18.16257989
9.26100724,5.43522878,1.13402814,0.06797060,-0.03673016

>  <Name>  (40) 
7lng_h

>  <RI>  (40) 
8.5107e+06

>  <Rbt.Current_Directory>  (40) 
/home/jta30/NA_complexes/7lng

>  <Rbt.Executable>  (40) 
rbdock ($Id: //depot/dev/client3/rdock/2013.1/src/exe/rbdock.cxx#4 $)

>  <Rbt.Library>  (40) 
libRbt.so (2013.1, Build901 2013/11/27)

>  <Rbt.Parameter_File>  (40) 
/software/dev_tools/swtree/cs400_centos7.2_pe2016-08/rdock/2013.1/centos7.2_conda/build/data/scripts/dock.prm

>  <Rbt.Receptor>  (40) 
7lng.prm

>  <SCORE>  (40) 
-17.112

>  <SCORE.INTER>  (40) 
-8.40266

>  <SCORE.INTER.CONST>  (40) 
1

>  <SCORE.INTER.POLAR>  (40) 
-2.26829

>  <SCORE.INTER.REPUL>  (40) 
0.129269

>  <SCORE.INTER.ROT>  (40) 
4

>  <SCORE.INTER.VDW>  (40) 
-10.7368

>  <SCORE.INTER.norm>  (40) 
-0.400127

>  <SCORE.INTRA>  (40) 
-8.68571

>  <SCORE.INTRA.DIHEDRAL>  (40) 
-7.75205

>  <SCORE.INTRA.DIHEDRAL.0>  (40) 
10.6104

>  <SCORE.INTRA.POLAR>  (40) 
-0.948761

>  <SCORE.INTRA.POLAR.0>  (40) 
0

>  <SCORE.INTRA.REPUL>  (40) 
0

>  <SCORE.INTRA.REPUL.0>  (40) 
0

>  <SCORE.INTRA.VDW>  (40) 
-1.5839

>  <SCORE.INTRA.VDW.0>  (40) 
-1.96818

>  <SCORE.INTRA.norm>  (40) 
-0.413605

>  <SCORE.RESTR>  (40) 
0

>  <SCORE.RESTR.CAVITY>  (40) 
0

>  <SCORE.RESTR.norm>  (40) 
0

>  <SCORE.SYSTEM>  (40) 
-0.0236139

>  <SCORE.SYSTEM.CONST>  (40) 
0

>  <SCORE.SYSTEM.DIHEDRAL>  (40) 
0.295811

>  <SCORE.SYSTEM.VDW>  (40) 
-0.17152

>  <SCORE.SYSTEM.norm>  (40) 
-0.00112447

>  <SCORE.heavy>  (40) 
21

>  <SCORE.norm>  (40) 
-0.814856

>  <Predicted_Rank>  (40) 
40.0

$$$$
7lng_h
     RDKit          3D

 24 26  0  0  0  0  0  0  0  0999 V2000
   13.8070   11.2349    5.3054 P   0  0  1  0  0  0  0  0  0  0  0  0
   15.0582   11.2437    6.1017 O   0  0  0  0  0  0  0  0  0  0  0  0
   13.6599   12.0893    4.0996 O   0  0  0  0  0  0  0  0  0  0  0  0
   13.1482    7.3287    4.8302 C   0  0  0  0  0  0  0  0  0  0  0  0
   14.3778    7.1638    4.1137 O   0  0  0  0  0  0  0  0  0  0  0  0
   13.4827    8.5609    5.6625 C   0  0  2  0  0  0  0  0  0  0  0  0
   13.5001    9.7310    4.7862 O   0  0  0  0  0  0  0  0  0  0  0  0
   14.8788    8.3253    6.1467 C   0  0  1  0  0  0  0  0  0  0  0  0
   14.9599    7.4311    7.2967 O   0  0  0  0  0  0  0  0  0  0  0  0
   15.4883    7.6885    4.9057 C   0  0  2  0  0  0  0  0  0  0  0  0
   19.4194   10.7044    5.9551 N   0  0  0  0  0  0  0  0  0  0  0  0
   18.7592    9.7322    6.7506 C   0  0  0  0  0  0  0  0  0  0  0  0
   19.1526    9.4922    8.0101 N   0  0  0  0  0  0  0  0  0  0  0  0
   17.7227    9.0519    6.2121 N   0  0  0  0  0  0  0  0  0  0  0  0
   17.3296    9.2993    4.9475 C   0  0  0  0  0  0  0  0  0  0  0  0
   17.9429   10.2108    4.1574 C   0  0  0  0  0  0  0  0  0  0  0  0
   18.9740   10.9260    4.6237 C   0  0  0  0  0  0  0  0  0  0  0  0
   19.5467   11.7680    3.9179 O   0  0  0  0  0  0  0  0  0  0  0  0
   17.3190   10.2187    2.9765 N   0  0  0  0  0  0  0  0  0  0  0  0
   16.3409    9.3203    3.0251 C   0  0  0  0  0  0  0  0  0  0  0  0
   16.3533    8.7379    4.2439 N   0  0  0  0  0  0  0  0  0  0  0  0
   14.6719    7.8967    8.0854 H   0  0  0  0  0  0  0  0  0  0  0  0
   18.6969    9.9612    8.7797 H   0  0  0  0  0  0  0  0  0  0  0  0
   19.9047    8.8422    8.1887 H   0  0  0  0  0  0  0  0  0  0  0  0
  1  2  1  6
  1  3  2  0
  1  7  1  0
  4  5  1  0
  4  6  1  0
  5 10  1  0
  6  7  1  6
  6  8  1  0
  8  9  1  1
  8 10  1  0
  9 22  1  0
 10 21  1  6
 11 12  1  0
 11 17  1  0
 12 13  1  0
 12 14  2  0
 13 23  1  0
 13 24  1  0
 14 15  1  0
 15 16  2  0
 15 21  1  0
 16 17  1  0
 16 19  1  0
 17 18  2  0
 19 20  2  0
 20 21  1  0
M  CHG  1   2  -1
M  END
>  <CHROM.0>  (41) 
-178.69716727

>  <CHROM.1>  (41) 
50.99280714,179.50950395,-74.88735833,176.33281739,94.82894143,16.05385955
9.63716886,5.19225658,2.94768270,0.19677578,2.57780665

>  <Name>  (41) 
7lng_h

>  <RI>  (41) 
8.5107e+06

>  <Rbt.Current_Directory>  (41) 
/home/jta30/NA_complexes/7lng

>  <Rbt.Executable>  (41) 
rbdock ($Id: //depot/dev/client3/rdock/2013.1/src/exe/rbdock.cxx#4 $)

>  <Rbt.Library>  (41) 
libRbt.so (2013.1, Build901 2013/11/27)

>  <Rbt.Parameter_File>  (41) 
/software/dev_tools/swtree/cs400_centos7.2_pe2016-08/rdock/2013.1/centos7.2_conda/build/data/scripts/dock.prm

>  <Rbt.Receptor>  (41) 
7lng.prm

>  <SCORE>  (41) 
-19.9095

>  <SCORE.INTER>  (41) 
-14.8937

>  <SCORE.INTER.CONST>  (41) 
1

>  <SCORE.INTER.POLAR>  (41) 
-3.91121

>  <SCORE.INTER.REPUL>  (41) 
0.0706195

>  <SCORE.INTER.ROT>  (41) 
4

>  <SCORE.INTER.VDW>  (41) 
-11.3487

>  <SCORE.INTER.norm>  (41) 
-0.709224

>  <SCORE.INTRA>  (41) 
-4.97115

>  <SCORE.INTRA.DIHEDRAL>  (41) 
-7.21994

>  <SCORE.INTRA.DIHEDRAL.0>  (41) 
10.6104

>  <SCORE.INTRA.POLAR>  (41) 
0

>  <SCORE.INTRA.POLAR.0>  (41) 
0

>  <SCORE.INTRA.REPUL>  (41) 
0

>  <SCORE.INTRA.REPUL.0>  (41) 
0

>  <SCORE.INTRA.VDW>  (41) 
-1.36118

>  <SCORE.INTRA.VDW.0>  (41) 
-1.96818

>  <SCORE.INTRA.norm>  (41) 
-0.236721

>  <SCORE.RESTR>  (41) 
0

>  <SCORE.RESTR.CAVITY>  (41) 
0

>  <SCORE.RESTR.norm>  (41) 
0

>  <SCORE.SYSTEM>  (41) 
-0.0446436

>  <SCORE.SYSTEM.CONST>  (41) 
0

>  <SCORE.SYSTEM.DIHEDRAL>  (41) 
0.277457

>  <SCORE.SYSTEM.VDW>  (41) 
-0.183372

>  <SCORE.SYSTEM.norm>  (41) 
-0.00212588

>  <SCORE.heavy>  (41) 
21

>  <SCORE.norm>  (41) 
-0.948072

>  <Predicted_Rank>  (41) 
41.0

$$$$
7lng_h
     RDKit          3D

 24 26  0  0  0  0  0  0  0  0999 V2000
   13.4148   11.1602    5.3298 P   0  0  1  0  0  0  0  0  0  0  0  0
   14.6979   11.3685    6.0439 O   0  0  0  0  0  0  0  0  0  0  0  0
   13.0330   12.0125    4.1751 O   0  0  0  0  0  0  0  0  0  0  0  0
   13.2208    7.2179    4.7549 C   0  0  0  0  0  0  0  0  0  0  0  0
   14.4805    7.1851    4.0732 O   0  0  0  0  0  0  0  0  0  0  0  0
   13.4126    8.4584    5.6191 C   0  0  2  0  0  0  0  0  0  0  0  0
   13.3436    9.6431    4.7652 O   0  0  0  0  0  0  0  0  0  0  0  0
   14.8104    8.3459    6.1413 C   0  0  1  0  0  0  0  0  0  0  0  0
   14.9434    7.4394    7.2767 O   0  0  0  0  0  0  0  0  0  0  0  0
   15.5129    7.7958    4.9080 C   0  0  2  0  0  0  0  0  0  0  0  0
   19.2854   10.9784    6.0436 N   0  0  0  0  0  0  0  0  0  0  0  0
   18.7095    9.9195    6.7925 C   0  0  0  0  0  0  0  0  0  0  0  0
   19.1547    9.6264    8.0231 N   0  0  0  0  0  0  0  0  0  0  0  0
   17.6998    9.2111    6.2392 N   0  0  0  0  0  0  0  0  0  0  0  0
   17.2544    9.5118    5.0039 C   0  0  0  0  0  0  0  0  0  0  0  0
   17.7874   10.5071    4.2577 C   0  0  0  0  0  0  0  0  0  0  0  0
   18.7873   11.2544    4.7414 C   0  0  0  0  0  0  0  0  0  0  0  0
   19.2865   12.1725    4.0759 O   0  0  0  0  0  0  0  0  0  0  0  0
   17.1285   10.5498    3.0968 N   0  0  0  0  0  0  0  0  0  0  0  0
   16.2082    9.5912    3.1137 C   0  0  0  0  0  0  0  0  0  0  0  0
   16.2926    8.9359    4.2920 N   0  0  0  0  0  0  0  0  0  0  0  0
   14.6770    7.8918    8.0806 H   0  0  0  0  0  0  0  0  0  0  0  0
   18.7227   10.0513    8.8311 H   0  0  0  0  0  0  0  0  0  0  0  0
   19.9221    8.9806    8.1417 H   0  0  0  0  0  0  0  0  0  0  0  0
  1  2  1  6
  1  3  2  0
  1  7  1  0
  4  5  1  0
  4  6  1  0
  5 10  1  0
  6  7  1  6
  6  8  1  0
  8  9  1  1
  8 10  1  0
  9 22  1  0
 10 21  1  6
 11 12  1  0
 11 17  1  0
 12 13  1  0
 12 14  2  0
 13 23  1  0
 13 24  1  0
 14 15  1  0
 15 16  2  0
 15 21  1  0
 16 17  1  0
 16 19  1  0
 17 18  2  0
 19 20  2  0
 20 21  1  0
M  CHG  1   2  -1
M  END
>  <CHROM.0>  (42) 
-62.61404898

>  <CHROM.1>  (42) 
59.77624480,176.24820817,-80.85997776,-179.07986568,91.96336429,15.90525912
9.74544334,5.22299871,2.93627501,0.21655821,2.65588812

>  <Name>  (42) 
7lng_h

>  <RI>  (42) 
8.5107e+06

>  <Rbt.Current_Directory>  (42) 
/home/jta30/NA_complexes/7lng

>  <Rbt.Executable>  (42) 
rbdock ($Id: //depot/dev/client3/rdock/2013.1/src/exe/rbdock.cxx#4 $)

>  <Rbt.Library>  (42) 
libRbt.so (2013.1, Build901 2013/11/27)

>  <Rbt.Parameter_File>  (42) 
/software/dev_tools/swtree/cs400_centos7.2_pe2016-08/rdock/2013.1/centos7.2_conda/build/data/scripts/dock.prm

>  <Rbt.Receptor>  (42) 
7lng.prm

>  <SCORE>  (42) 
-19.8341

>  <SCORE.INTER>  (42) 
-15.2475

>  <SCORE.INTER.CONST>  (42) 
1

>  <SCORE.INTER.POLAR>  (42) 
-3.8784

>  <SCORE.INTER.REPUL>  (42) 
0.0771205

>  <SCORE.INTER.ROT>  (42) 
4

>  <SCORE.INTER.VDW>  (42) 
-11.8466

>  <SCORE.INTER.norm>  (42) 
-0.726073

>  <SCORE.INTRA>  (42) 
-4.56408

>  <SCORE.INTRA.DIHEDRAL>  (42) 
-6.30312

>  <SCORE.INTRA.DIHEDRAL.0>  (42) 
10.6104

>  <SCORE.INTRA.POLAR>  (42) 
0

>  <SCORE.INTRA.POLAR.0>  (42) 
0

>  <SCORE.INTRA.REPUL>  (42) 
0

>  <SCORE.INTRA.REPUL.0>  (42) 
0

>  <SCORE.INTRA.VDW>  (42) 
-1.41252

>  <SCORE.INTRA.VDW.0>  (42) 
-1.96818

>  <SCORE.INTRA.norm>  (42) 
-0.217337

>  <SCORE.RESTR>  (42) 
0

>  <SCORE.RESTR.CAVITY>  (42) 
0

>  <SCORE.RESTR.norm>  (42) 
0

>  <SCORE.SYSTEM>  (42) 
-0.022497

>  <SCORE.SYSTEM.CONST>  (42) 
0

>  <SCORE.SYSTEM.DIHEDRAL>  (42) 
0.300857

>  <SCORE.SYSTEM.VDW>  (42) 
-0.172925

>  <SCORE.SYSTEM.norm>  (42) 
-0.00107129

>  <SCORE.heavy>  (42) 
21

>  <SCORE.norm>  (42) 
-0.944482

>  <Predicted_Rank>  (42) 
42.0

$$$$
7lng_h
     RDKit          3D

 24 26  0  0  0  0  0  0  0  0999 V2000
   13.5717   10.6257    4.7195 P   0  0  1  0  0  0  0  0  0  0  0  0
   13.6135   11.3977    3.4539 O   0  0  0  0  0  0  0  0  0  0  0  0
   12.4577   10.7983    5.6863 O   0  0  0  0  0  0  0  0  0  0  0  0
   13.5528    6.6366    4.7462 C   0  0  0  0  0  0  0  0  0  0  0  0
   14.8789    6.5636    4.2088 O   0  0  0  0  0  0  0  0  0  0  0  0
   13.6094    8.0013    5.4226 C   0  0  2  0  0  0  0  0  0  0  0  0
   13.5932    9.0388    4.3927 O   0  0  0  0  0  0  0  0  0  0  0  0
   14.9459    8.0378    6.0944 C   0  0  1  0  0  0  0  0  0  0  0  0
   14.9861    7.3205    7.3643 O   0  0  0  0  0  0  0  0  0  0  0  0
   15.7948    7.3433    5.0388 C   0  0  2  0  0  0  0  0  0  0  0  0
   19.5267   10.6378    5.9712 N   0  0  0  0  0  0  0  0  0  0  0  0
   18.9225    9.6618    6.8056 C   0  0  0  0  0  0  0  0  0  0  0  0
   19.3219    9.5008    8.0757 N   0  0  0  0  0  0  0  0  0  0  0  0
   17.9330    8.8965    6.2932 N   0  0  0  0  0  0  0  0  0  0  0  0
   17.5335    9.0647    5.0177 C   0  0  0  0  0  0  0  0  0  0  0  0
   18.0947    9.9775    4.1911 C   0  0  0  0  0  0  0  0  0  0  0  0
   19.0770   10.7742    4.6299 C   0  0  0  0  0  0  0  0  0  0  0  0
   19.6014   11.6188    3.8904 O   0  0  0  0  0  0  0  0  0  0  0  0
   17.4789    9.8963    3.0088 N   0  0  0  0  0  0  0  0  0  0  0  0
   16.5574    8.9424    3.0926 C   0  0  0  0  0  0  0  0  0  0  0  0
   16.5979    8.4146    4.3354 N   0  0  0  0  0  0  0  0  0  0  0  0
   14.6486    7.8864    8.0626 H   0  0  0  0  0  0  0  0  0  0  0  0
   20.0524    8.8389    8.2954 H   0  0  0  0  0  0  0  0  0  0  0  0
   18.8921   10.0418    8.8123 H   0  0  0  0  0  0  0  0  0  0  0  0
  1  2  1  6
  1  3  2  0
  1  7  1  0
  4  5  1  0
  4  6  1  0
  5 10  1  0
  6  7  1  6
  6  8  1  0
  8  9  1  1
  8 10  1  0
  9 22  1  0
 10 21  1  6
 11 12  1  0
 11 17  1  0
 12 13  1  0
 12 14  2  0
 13 23  1  0
 13 24  1  0
 14 15  1  0
 15 16  2  0
 15 21  1  0
 16 17  1  0
 16 19  1  0
 17 18  2  0
 19 20  2  0
 20 21  1  0
M  CHG  1   2  -1
M  END
>  <CHROM.0>  (43) 
-62.05884548

>  <CHROM.1>  (43) 
177.75606285,177.04612984,-82.82937797,-173.74363996,-91.10279023,16.04183295
9.27978167,5.07863118,3.02374779,0.21810837,2.53743900

>  <Name>  (43) 
7lng_h

>  <RI>  (43) 
8.5107e+06

>  <Rbt.Current_Directory>  (43) 
/home/jta30/NA_complexes/7lng

>  <Rbt.Executable>  (43) 
rbdock ($Id: //depot/dev/client3/rdock/2013.1/src/exe/rbdock.cxx#4 $)

>  <Rbt.Library>  (43) 
libRbt.so (2013.1, Build901 2013/11/27)

>  <Rbt.Parameter_File>  (43) 
/software/dev_tools/swtree/cs400_centos7.2_pe2016-08/rdock/2013.1/centos7.2_conda/build/data/scripts/dock.prm

>  <Rbt.Receptor>  (43) 
7lng.prm

>  <SCORE>  (43) 
-18.7067

>  <SCORE.INTER>  (43) 
-14.7007

>  <SCORE.INTER.CONST>  (43) 
1

>  <SCORE.INTER.POLAR>  (43) 
-4.08955

>  <SCORE.INTER.REPUL>  (43) 
0.0691634

>  <SCORE.INTER.ROT>  (43) 
4

>  <SCORE.INTER.VDW>  (43) 
-10.542

>  <SCORE.INTER.norm>  (43) 
-0.700032

>  <SCORE.INTRA>  (43) 
-3.98118

>  <SCORE.INTRA.DIHEDRAL>  (43) 
-6.05226

>  <SCORE.INTRA.DIHEDRAL.0>  (43) 
10.6104

>  <SCORE.INTRA.POLAR>  (43) 
0

>  <SCORE.INTRA.POLAR.0>  (43) 
0

>  <SCORE.INTRA.REPUL>  (43) 
0

>  <SCORE.INTRA.REPUL.0>  (43) 
0

>  <SCORE.INTRA.VDW>  (43) 
-0.955053

>  <SCORE.INTRA.VDW.0>  (43) 
-1.96818

>  <SCORE.INTRA.norm>  (43) 
-0.18958

>  <SCORE.RESTR>  (43) 
0

>  <SCORE.RESTR.CAVITY>  (43) 
0

>  <SCORE.RESTR.norm>  (43) 
0

>  <SCORE.SYSTEM>  (43) 
-0.0248485

>  <SCORE.SYSTEM.CONST>  (43) 
0

>  <SCORE.SYSTEM.DIHEDRAL>  (43) 
0.289043

>  <SCORE.SYSTEM.VDW>  (43) 
-0.16937

>  <SCORE.SYSTEM.norm>  (43) 
-0.00118326

>  <SCORE.heavy>  (43) 
21

>  <SCORE.norm>  (43) 
-0.890795

>  <Predicted_Rank>  (43) 
43.0

$$$$
7lng_h
     RDKit          3D

 24 26  0  0  0  0  0  0  0  0999 V2000
   14.7275    8.0340    6.4108 P   0  0  1  0  0  0  0  0  0  0  0  0
   13.5114    8.0796    5.5631 O   0  0  0  0  0  0  0  0  0  0  0  0
   15.0768    6.8158    7.1851 O   0  0  0  0  0  0  0  0  0  0  0  0
   18.3660    8.6661    4.9032 C   0  0  0  0  0  0  0  0  0  0  0  0
   18.1440   10.0813    4.9286 O   0  0  0  0  0  0  0  0  0  0  0  0
   17.4071    8.2216    6.0012 C   0  0  2  0  0  0  0  0  0  0  0  0
   16.0365    8.3379    5.5057 O   0  0  0  0  0  0  0  0  0  0  0  0
   17.5897    9.2259    7.0953 C   0  0  1  0  0  0  0  0  0  0  0  0
   18.7685    8.9885    7.9215 O   0  0  0  0  0  0  0  0  0  0  0  0
   17.7385   10.4963    6.2699 C   0  0  2  0  0  0  0  0  0  0  0  0
   15.8852   15.1545    5.5515 N   0  0  0  0  0  0  0  0  0  0  0  0
   17.1908   14.6359    5.3516 C   0  0  0  0  0  0  0  0  0  0  0  0
   18.1822   15.4221    4.9070 N   0  0  0  0  0  0  0  0  0  0  0  0
   17.4159   13.3303    5.6201 N   0  0  0  0  0  0  0  0  0  0  0  0
   16.4171   12.5458    6.0696 C   0  0  0  0  0  0  0  0  0  0  0  0
   15.1583   13.0042    6.2608 C   0  0  0  0  0  0  0  0  0  0  0  0
   14.8614   14.2873    6.0203 C   0  0  0  0  0  0  0  0  0  0  0  0
   13.7162   14.7276    6.1926 O   0  0  0  0  0  0  0  0  0  0  0  0
   14.4142   11.9900    6.7097 N   0  0  0  0  0  0  0  0  0  0  0  0
   15.1921   10.9152    6.7866 C   0  0  0  0  0  0  0  0  0  0  0  0
   16.4340   11.2541    6.3770 N   0  0  0  0  0  0  0  0  0  0  0  0
   18.7619    8.0813    8.2358 H   0  0  0  0  0  0  0  0  0  0  0  0
   18.8019   15.8741    5.5641 H   0  0  0  0  0  0  0  0  0  0  0  0
   18.3091   15.5619    3.9148 H   0  0  0  0  0  0  0  0  0  0  0  0
  1  2  1  6
  1  3  2  0
  1  7  1  0
  4  5  1  0
  4  6  1  0
  5 10  1  0
  6  7  1  6
  6  8  1  0
  8  9  1  6
  8 10  1  0
  9 22  1  0
 10 21  1  6
 11 12  1  0
 11 17  1  0
 12 13  1  0
 12 14  2  0
 13 23  1  0
 13 24  1  0
 14 15  1  0
 15 16  2  0
 15 21  1  0
 16 17  1  0
 16 19  1  0
 17 18  2  0
 19 20  2  0
 20 21  1  0
M  CHG  1   2  -1
M  END
>  <CHROM.0>  (44) 
-177.69668051

>  <CHROM.1>  (44) 
-172.89381020,-176.54474816,-52.06920909,-79.12430660,94.08241291,16.22318292
10.89653905,6.09505234,1.59630637,-0.09125086,3.03675010

>  <Name>  (44) 
7lng_h

>  <RI>  (44) 
8.5107e+06

>  <Rbt.Current_Directory>  (44) 
/home/jta30/NA_complexes/7lng

>  <Rbt.Executable>  (44) 
rbdock ($Id: //depot/dev/client3/rdock/2013.1/src/exe/rbdock.cxx#4 $)

>  <Rbt.Library>  (44) 
libRbt.so (2013.1, Build901 2013/11/27)

>  <Rbt.Parameter_File>  (44) 
/software/dev_tools/swtree/cs400_centos7.2_pe2016-08/rdock/2013.1/centos7.2_conda/build/data/scripts/dock.prm

>  <Rbt.Receptor>  (44) 
7lng.prm

>  <SCORE>  (44) 
-16.9009

>  <SCORE.INTER>  (44) 
-13.1285

>  <SCORE.INTER.CONST>  (44) 
1

>  <SCORE.INTER.POLAR>  (44) 
-2.42527

>  <SCORE.INTER.REPUL>  (44) 
0.00199748

>  <SCORE.INTER.ROT>  (44) 
4

>  <SCORE.INTER.VDW>  (44) 
-14.2925

>  <SCORE.INTER.norm>  (44) 
-0.625165

>  <SCORE.INTRA>  (44) 
-3.72802

>  <SCORE.INTRA.DIHEDRAL>  (44) 
-7.64153

>  <SCORE.INTRA.DIHEDRAL.0>  (44) 
10.6104

>  <SCORE.INTRA.POLAR>  (44) 
0

>  <SCORE.INTRA.POLAR.0>  (44) 
0

>  <SCORE.INTRA.REPUL>  (44) 
0

>  <SCORE.INTRA.REPUL.0>  (44) 
0

>  <SCORE.INTRA.VDW>  (44) 
0.0927437

>  <SCORE.INTRA.VDW.0>  (44) 
-1.96818

>  <SCORE.INTRA.norm>  (44) 
-0.177525

>  <SCORE.RESTR>  (44) 
0

>  <SCORE.RESTR.CAVITY>  (44) 
0

>  <SCORE.RESTR.norm>  (44) 
0

>  <SCORE.SYSTEM>  (44) 
-0.0444677

>  <SCORE.SYSTEM.CONST>  (44) 
0

>  <SCORE.SYSTEM.DIHEDRAL>  (44) 
0.293901

>  <SCORE.SYSTEM.VDW>  (44) 
-0.191418

>  <SCORE.SYSTEM.norm>  (44) 
-0.00211751

>  <SCORE.heavy>  (44) 
21

>  <SCORE.norm>  (44) 
-0.804807

>  <Predicted_Rank>  (44) 
44.0

$$$$
7lng_h
     RDKit          3D

 24 26  0  0  0  0  0  0  0  0999 V2000
   20.6456   10.1716    7.0111 P   0  0  1  0  0  0  0  0  0  0  0  0
   20.1879    9.8250    8.3785 O   0  0  0  0  0  0  0  0  0  0  0  0
   20.8341    9.1225    5.9769 O   0  0  0  0  0  0  0  0  0  0  0  0
   18.3196   13.2609    6.0415 C   0  0  0  0  0  0  0  0  0  0  0  0
   17.1368   12.4575    5.9507 O   0  0  0  0  0  0  0  0  0  0  0  0
   19.1361   12.4309    7.0249 C   0  0  2  0  0  0  0  0  0  0  0  0
   19.6177   11.2308    6.3427 O   0  0  0  0  0  0  0  0  0  0  0  0
   18.1541   12.0053    8.0706 C   0  0  1  0  0  0  0  0  0  0  0  0
   17.8652   13.0366    9.0613 O   0  0  0  0  0  0  0  0  0  0  0  0
   16.9402   11.7205    7.1973 C   0  0  2  0  0  0  0  0  0  0  0  0
   13.5911    8.2017    5.7651 N   0  0  0  0  0  0  0  0  0  0  0  0
   13.5049    9.6181    5.7627 C   0  0  0  0  0  0  0  0  0  0  0  0
   12.3946   10.2386    5.3374 N   0  0  0  0  0  0  0  0  0  0  0  0
   14.5670   10.3311    6.1997 N   0  0  0  0  0  0  0  0  0  0  0  0
   15.6787    9.7026    6.6288 C   0  0  0  0  0  0  0  0  0  0  0  0
   15.7993    8.3548    6.6345 C   0  0  0  0  0  0  0  0  0  0  0  0
   14.7869    7.5829    6.2201 C   0  0  0  0  0  0  0  0  0  0  0  0
   14.8758    6.3472    6.2210 O   0  0  0  0  0  0  0  0  0  0  0  0
   17.0076    8.0512    7.1156 N   0  0  0  0  0  0  0  0  0  0  0  0
   17.6341    9.1896    7.3948 C   0  0  0  0  0  0  0  0  0  0  0  0
   16.8160   10.2177    7.0810 N   0  0  0  0  0  0  0  0  0  0  0  0
   17.5866   13.8400    8.6154 H   0  0  0  0  0  0  0  0  0  0  0  0
   11.4956    9.7892    5.4359 H   0  0  0  0  0  0  0  0  0  0  0  0
   12.4578   11.1556    4.9187 H   0  0  0  0  0  0  0  0  0  0  0  0
  1  2  1  1
  1  3  2  0
  1  7  1  0
  4  5  1  0
  4  6  1  0
  5 10  1  0
  6  7  1  6
  6  8  1  0
  8  9  1  1
  8 10  1  0
  9 22  1  0
 10 21  1  6
 11 12  1  0
 11 17  1  0
 12 13  1  0
 12 14  2  0
 13 23  1  0
 13 24  1  0
 14 15  1  0
 15 16  2  0
 15 21  1  0
 16 17  1  0
 16 19  1  0
 17 18  2  0
 19 20  2  0
 20 21  1  0
M  CHG  1   2  -1
M  END
>  <CHROM.0>  (45) 
-60.47455238

>  <CHROM.1>  (45) 
47.81487730,173.63515123,54.03088868,-75.60629897,29.56681451,17.19218726
10.19224895,6.75477948,-0.42067710,0.17057328,-3.04830125

>  <Name>  (45) 
7lng_h

>  <RI>  (45) 
8.5107e+06

>  <Rbt.Current_Directory>  (45) 
/home/jta30/NA_complexes/7lng

>  <Rbt.Executable>  (45) 
rbdock ($Id: //depot/dev/client3/rdock/2013.1/src/exe/rbdock.cxx#4 $)

>  <Rbt.Library>  (45) 
libRbt.so (2013.1, Build901 2013/11/27)

>  <Rbt.Parameter_File>  (45) 
/software/dev_tools/swtree/cs400_centos7.2_pe2016-08/rdock/2013.1/centos7.2_conda/build/data/scripts/dock.prm

>  <Rbt.Receptor>  (45) 
7lng.prm

>  <SCORE>  (45) 
-16.7329

>  <SCORE.INTER>  (45) 
-12.4969

>  <SCORE.INTER.CONST>  (45) 
1

>  <SCORE.INTER.POLAR>  (45) 
-1.39877

>  <SCORE.INTER.REPUL>  (45) 
0

>  <SCORE.INTER.ROT>  (45) 
4

>  <SCORE.INTER.VDW>  (45) 
-17.1411

>  <SCORE.INTER.norm>  (45) 
-0.595092

>  <SCORE.INTRA>  (45) 
-4.21266

>  <SCORE.INTRA.DIHEDRAL>  (45) 
-7.76611

>  <SCORE.INTRA.DIHEDRAL.0>  (45) 
10.6104

>  <SCORE.INTRA.POLAR>  (45) 
0

>  <SCORE.INTRA.POLAR.0>  (45) 
0

>  <SCORE.INTRA.REPUL>  (45) 
0

>  <SCORE.INTRA.REPUL.0>  (45) 
0

>  <SCORE.INTRA.VDW>  (45) 
-0.329606

>  <SCORE.INTRA.VDW.0>  (45) 
-1.96818

>  <SCORE.INTRA.norm>  (45) 
-0.200603

>  <SCORE.RESTR>  (45) 
0

>  <SCORE.RESTR.CAVITY>  (45) 
0

>  <SCORE.RESTR.norm>  (45) 
0

>  <SCORE.SYSTEM>  (45) 
-0.0233039

>  <SCORE.SYSTEM.CONST>  (45) 
0

>  <SCORE.SYSTEM.DIHEDRAL>  (45) 
0.270739

>  <SCORE.SYSTEM.VDW>  (45) 
-0.158673

>  <SCORE.SYSTEM.norm>  (45) 
-0.00110971

>  <SCORE.heavy>  (45) 
21

>  <SCORE.norm>  (45) 
-0.796805

>  <Predicted_Rank>  (45) 
45.0

$$$$
7lng_h
     RDKit          3D

 24 26  0  0  0  0  0  0  0  0999 V2000
   11.9425   10.2572    4.4332 P   0  0  1  0  0  0  0  0  0  0  0  0
   10.6118    9.9122    4.9897 O   0  0  0  0  0  0  0  0  0  0  0  0
   12.2648   11.6477    4.0231 O   0  0  0  0  0  0  0  0  0  0  0  0
   14.4052    8.1955    4.3069 C   0  0  0  0  0  0  0  0  0  0  0  0
   15.5541    9.0407    4.4419 O   0  0  0  0  0  0  0  0  0  0  0  0
   13.6748    8.5218    5.6041 C   0  0  2  0  0  0  0  0  0  0  0  0
   13.0991    9.8614    5.4968 O   0  0  0  0  0  0  0  0  0  0  0  0
   14.7485    8.5624    6.6454 C   0  0  1  0  0  0  0  0  0  0  0  0
   15.1602    7.2449    7.1180 O   0  0  0  0  0  0  0  0  0  0  0  0
   15.8602    9.2404    5.8569 C   0  0  2  0  0  0  0  0  0  0  0  0
   18.9405   12.3000    8.4646 N   0  0  0  0  0  0  0  0  0  0  0  0
   19.0858   10.9389    8.0906 C   0  0  0  0  0  0  0  0  0  0  0  0
   20.1790   10.2436    8.4375 N   0  0  0  0  0  0  0  0  0  0  0  0
   18.0973   10.3556    7.3767 N   0  0  0  0  0  0  0  0  0  0  0  0
   16.9999   11.0578    7.0337 C   0  0  0  0  0  0  0  0  0  0  0  0
   16.8334   12.3595    7.3638 C   0  0  0  0  0  0  0  0  0  0  0  0
   17.7684   13.0026    8.0740 C   0  0  0  0  0  0  0  0  0  0  0  0
   17.6334   14.1930    8.3897 O   0  0  0  0  0  0  0  0  0  0  0  0
   15.6527   12.7586    6.8836 N   0  0  0  0  0  0  0  0  0  0  0  0
   15.0974   11.7274    6.2555 C   0  0  0  0  0  0  0  0  0  0  0  0
   15.9379   10.6729    6.3355 N   0  0  0  0  0  0  0  0  0  0  0  0
   15.9070    7.3374    7.7143 H   0  0  0  0  0  0  0  0  0  0  0  0
   20.2130    9.2460    8.2840 H   0  0  0  0  0  0  0  0  0  0  0  0
   20.9683   10.7180    8.8523 H   0  0  0  0  0  0  0  0  0  0  0  0
  1  2  1  1
  1  3  2  0
  1  7  1  0
  4  5  1  0
  4  6  1  0
  5 10  1  0
  6  7  1  6
  6  8  1  0
  8  9  1  6
  8 10  1  0
  9 22  1  0
 10 21  1  6
 11 12  1  0
 11 17  1  0
 12 13  1  0
 12 14  2  0
 13 23  1  0
 13 24  1  0
 14 15  1  0
 15 16  2  0
 15 21  1  0
 16 17  1  0
 16 19  1  0
 17 18  2  0
 19 20  2  0
 20 21  1  0
M  CHG  1   2  -1
M  END
>  <CHROM.0>  (46) 
-61.81018838

>  <CHROM.1>  (46) 
84.59098473,64.24816114,174.35342177,-129.71033775,171.13175391,15.42125692
10.51183585,6.31378548,2.77780495,0.45668026,-2.99624467

>  <Name>  (46) 
7lng_h

>  <RI>  (46) 
8.5107e+06

>  <Rbt.Current_Directory>  (46) 
/home/jta30/NA_complexes/7lng

>  <Rbt.Executable>  (46) 
rbdock ($Id: //depot/dev/client3/rdock/2013.1/src/exe/rbdock.cxx#4 $)

>  <Rbt.Library>  (46) 
libRbt.so (2013.1, Build901 2013/11/27)

>  <Rbt.Parameter_File>  (46) 
/software/dev_tools/swtree/cs400_centos7.2_pe2016-08/rdock/2013.1/centos7.2_conda/build/data/scripts/dock.prm

>  <Rbt.Receptor>  (46) 
7lng.prm

>  <SCORE>  (46) 
-16.0666

>  <SCORE.INTER>  (46) 
-12.2433

>  <SCORE.INTER.CONST>  (46) 
1

>  <SCORE.INTER.POLAR>  (46) 
-1.98687

>  <SCORE.INTER.REPUL>  (46) 
0.170696

>  <SCORE.INTER.ROT>  (46) 
4

>  <SCORE.INTER.VDW>  (46) 
-15.7414

>  <SCORE.INTER.norm>  (46) 
-0.583014

>  <SCORE.INTRA>  (46) 
-3.79787

>  <SCORE.INTRA.DIHEDRAL>  (46) 
-7.25499

>  <SCORE.INTRA.DIHEDRAL.0>  (46) 
10.6104

>  <SCORE.INTRA.POLAR>  (46) 
0

>  <SCORE.INTRA.POLAR.0>  (46) 
0

>  <SCORE.INTRA.REPUL>  (46) 
0

>  <SCORE.INTRA.REPUL.0>  (46) 
0

>  <SCORE.INTRA.VDW>  (46) 
-0.170375

>  <SCORE.INTRA.VDW.0>  (46) 
-1.96818

>  <SCORE.INTRA.norm>  (46) 
-0.180851

>  <SCORE.RESTR>  (46) 
0

>  <SCORE.RESTR.CAVITY>  (46) 
0

>  <SCORE.RESTR.norm>  (46) 
0

>  <SCORE.SYSTEM>  (46) 
-0.0254162

>  <SCORE.SYSTEM.CONST>  (46) 
0

>  <SCORE.SYSTEM.DIHEDRAL>  (46) 
0.284659

>  <SCORE.SYSTEM.VDW>  (46) 
-0.167746

>  <SCORE.SYSTEM.norm>  (46) 
-0.0012103

>  <SCORE.heavy>  (46) 
21

>  <SCORE.norm>  (46) 
-0.765075

>  <Predicted_Rank>  (46) 
46.0

$$$$
7lng_h
     RDKit          3D

 24 26  0  0  0  0  0  0  0  0999 V2000
   15.3785   10.1178    3.7619 P   0  0  1  0  0  0  0  0  0  0  0  0
   16.1277   11.2438    3.1533 O   0  0  0  0  0  0  0  0  0  0  0  0
   14.3339    9.3899    2.9973 O   0  0  0  0  0  0  0  0  0  0  0  0
   17.2464    6.9364    5.2799 C   0  0  0  0  0  0  0  0  0  0  0  0
   18.0217    7.7435    6.1743 O   0  0  0  0  0  0  0  0  0  0  0  0
   16.0321    7.8368    5.0860 C   0  0  2  0  0  0  0  0  0  0  0  0
   16.4144    8.9687    4.2433 O   0  0  0  0  0  0  0  0  0  0  0  0
   15.7253    8.3614    6.4533 C   0  0  1  0  0  0  0  0  0  0  0  0
   14.9909    7.4214    7.2933 O   0  0  0  0  0  0  0  0  0  0  0  0
   17.1370    8.5859    6.9765 C   0  0  2  0  0  0  0  0  0  0  0  0
   20.7727   11.9239    8.1122 N   0  0  0  0  0  0  0  0  0  0  0  0
   20.7508   10.5084    8.2111 C   0  0  0  0  0  0  0  0  0  0  0  0
   21.8132    9.8353    8.6766 N   0  0  0  0  0  0  0  0  0  0  0  0
   19.6342    9.8508    7.8264 N   0  0  0  0  0  0  0  0  0  0  0  0
   18.5686   10.5323    7.3626 C   0  0  0  0  0  0  0  0  0  0  0  0
   18.5589   11.8803    7.2446 C   0  0  0  0  0  0  0  0  0  0  0  0
   19.6274   12.5994    7.6101 C   0  0  0  0  0  0  0  0  0  0  0  0
   19.6375   13.8345    7.5136 O   0  0  0  0  0  0  0  0  0  0  0  0
   17.3675   12.2432    6.7624 N   0  0  0  0  0  0  0  0  0  0  0  0
   16.6504   11.1405    6.5724 C   0  0  0  0  0  0  0  0  0  0  0  0
   17.3987   10.0748    6.9319 N   0  0  0  0  0  0  0  0  0  0  0  0
   14.6539    7.8791    8.0671 H   0  0  0  0  0  0  0  0  0  0  0  0
   21.8347    8.8269    8.6248 H   0  0  0  0  0  0  0  0  0  0  0  0
   22.5920   10.3371    9.0788 H   0  0  0  0  0  0  0  0  0  0  0  0
  1  2  1  6
  1  3  2  0
  1  7  1  0
  4  5  1  0
  4  6  1  0
  5 10  1  0
  6  7  1  6
  6  8  1  0
  8  9  1  1
  8 10  1  0
  9 22  1  0
 10 21  1  6
 11 12  1  0
 11 17  1  0
 12 13  1  0
 12 14  2  0
 13 23  1  0
 13 24  1  0
 14 15  1  0
 15 16  2  0
 15 21  1  0
 16 17  1  0
 16 19  1  0
 17 18  2  0
 19 20  2  0
 20 21  1  0
M  CHG  1   2  -1
M  END
>  <CHROM.0>  (47) 
-178.78071938

>  <CHROM.1>  (47) 
168.98553969,177.48313189,-167.15283799,-61.67524839,-171.65151749,17.55001492
10.00778721,6.19670548,2.92140784,0.71822602,2.85772988

>  <Name>  (47) 
7lng_h

>  <RI>  (47) 
8.5107e+06

>  <Rbt.Current_Directory>  (47) 
/home/jta30/NA_complexes/7lng

>  <Rbt.Executable>  (47) 
rbdock ($Id: //depot/dev/client3/rdock/2013.1/src/exe/rbdock.cxx#4 $)

>  <Rbt.Library>  (47) 
libRbt.so (2013.1, Build901 2013/11/27)

>  <Rbt.Parameter_File>  (47) 
/software/dev_tools/swtree/cs400_centos7.2_pe2016-08/rdock/2013.1/centos7.2_conda/build/data/scripts/dock.prm

>  <Rbt.Receptor>  (47) 
7lng.prm

>  <SCORE>  (47) 
-17.2798

>  <SCORE.INTER>  (47) 
-12.8962

>  <SCORE.INTER.CONST>  (47) 
1

>  <SCORE.INTER.POLAR>  (47) 
-3.09042

>  <SCORE.INTER.REPUL>  (47) 
0

>  <SCORE.INTER.ROT>  (47) 
4

>  <SCORE.INTER.VDW>  (47) 
-11.7887

>  <SCORE.INTER.norm>  (47) 
-0.614103

>  <SCORE.INTRA>  (47) 
-4.33917

>  <SCORE.INTRA.DIHEDRAL>  (47) 
-7.42409

>  <SCORE.INTRA.DIHEDRAL.0>  (47) 
10.6104

>  <SCORE.INTRA.POLAR>  (47) 
0

>  <SCORE.INTRA.POLAR.0>  (47) 
0

>  <SCORE.INTRA.REPUL>  (47) 
0

>  <SCORE.INTRA.REPUL.0>  (47) 
0

>  <SCORE.INTRA.VDW>  (47) 
-0.62712

>  <SCORE.INTRA.VDW.0>  (47) 
-1.96818

>  <SCORE.INTRA.norm>  (47) 
-0.206627

>  <SCORE.RESTR>  (47) 
0

>  <SCORE.RESTR.CAVITY>  (47) 
0

>  <SCORE.RESTR.norm>  (47) 
0

>  <SCORE.SYSTEM>  (47) 
-0.0444315

>  <SCORE.SYSTEM.CONST>  (47) 
0

>  <SCORE.SYSTEM.DIHEDRAL>  (47) 
0.276496

>  <SCORE.SYSTEM.VDW>  (47) 
-0.182679

>  <SCORE.SYSTEM.norm>  (47) 
-0.00211579

>  <SCORE.heavy>  (47) 
21

>  <SCORE.norm>  (47) 
-0.822845

>  <Predicted_Rank>  (47) 
47.0

$$$$
7lng_h
     RDKit          3D

 24 26  0  0  0  0  0  0  0  0999 V2000
   14.2078   11.7634    3.1654 P   0  0  1  0  0  0  0  0  0  0  0  0
   14.2575   10.4950    2.3983 O   0  0  0  0  0  0  0  0  0  0  0  0
   12.9865   12.1608    3.9112 O   0  0  0  0  0  0  0  0  0  0  0  0
   14.9011   13.6323    5.7635 C   0  0  0  0  0  0  0  0  0  0  0  0
   14.9511   12.7200    6.8671 O   0  0  0  0  0  0  0  0  0  0  0  0
   15.9443   13.0053    4.8462 C   0  0  2  0  0  0  0  0  0  0  0  0
   15.3914   11.7799    4.2717 O   0  0  0  0  0  0  0  0  0  0  0  0
   17.0696   12.6228    5.7553 C   0  0  1  0  0  0  0  0  0  0  0  0
   17.9412   13.7365    6.1138 O   0  0  0  0  0  0  0  0  0  0  0  0
   16.2828   12.1252    6.9597 C   0  0  2  0  0  0  0  0  0  0  0  0
   13.4252    8.1242    5.7451 N   0  0  0  0  0  0  0  0  0  0  0  0
   13.1617    9.5151    5.6463 C   0  0  0  0  0  0  0  0  0  0  0  0
   11.9889    9.9606    5.1723 N   0  0  0  0  0  0  0  0  0  0  0  0
   14.1188   10.3839    6.0416 N   0  0  0  0  0  0  0  0  0  0  0  0
   15.2939    9.9308    6.5200 C   0  0  0  0  0  0  0  0  0  0  0  0
   15.5828    8.6124    6.6177 C   0  0  0  0  0  0  0  0  0  0  0  0
   14.6821    7.6930    6.2493 C   0  0  0  0  0  0  0  0  0  0  0  0
   14.9255    6.4812    6.3343 O   0  0  0  0  0  0  0  0  0  0  0  0
   16.8121    8.4966    7.1267 N   0  0  0  0  0  0  0  0  0  0  0  0
   17.2861    9.7210    7.3328 C   0  0  0  0  0  0  0  0  0  0  0  0
   16.3503   10.6144    6.9444 N   0  0  0  0  0  0  0  0  0  0  0  0
   18.3350   14.1038    5.3189 H   0  0  0  0  0  0  0  0  0  0  0  0
   11.1591    9.3920    5.2616 H   0  0  0  0  0  0  0  0  0  0  0  0
   11.9359   10.8652    4.7261 H   0  0  0  0  0  0  0  0  0  0  0  0
  1  2  1  1
  1  3  2  0
  1  7  1  0
  4  5  1  0
  4  6  1  0
  5 10  1  0
  6  7  1  1
  6  8  1  0
  8  9  1  1
  8 10  1  0
  9 22  1  0
 10 21  1  6
 11 12  1  0
 11 17  1  0
 12 13  1  0
 12 14  2  0
 13 23  1  0
 13 24  1  0
 14 15  1  0
 15 16  2  0
 15 21  1  0
 16 17  1  0
 16 19  1  0
 17 18  2  0
 19 20  2  0
 20 21  1  0
M  CHG  1   2  -1
M  END
>  <CHROM.0>  (48) 
-60.89869506

>  <CHROM.1>  (48) 
156.78866722,70.50125319,-60.32989943,16.69527214,27.09850590,15.04303212
10.76826902,5.50713530,1.25504862,-0.67760281,-0.40917128

>  <Name>  (48) 
7lng_h

>  <RI>  (48) 
8.5107e+06

>  <Rbt.Current_Directory>  (48) 
/home/jta30/NA_complexes/7lng

>  <Rbt.Executable>  (48) 
rbdock ($Id: //depot/dev/client3/rdock/2013.1/src/exe/rbdock.cxx#4 $)

>  <Rbt.Library>  (48) 
libRbt.so (2013.1, Build901 2013/11/27)

>  <Rbt.Parameter_File>  (48) 
/software/dev_tools/swtree/cs400_centos7.2_pe2016-08/rdock/2013.1/centos7.2_conda/build/data/scripts/dock.prm

>  <Rbt.Receptor>  (48) 
7lng.prm

>  <SCORE>  (48) 
-17.7331

>  <SCORE.INTER>  (48) 
-8.83023

>  <SCORE.INTER.CONST>  (48) 
1

>  <SCORE.INTER.POLAR>  (48) 
-0.886075

>  <SCORE.INTER.REPUL>  (48) 
0

>  <SCORE.INTER.ROT>  (48) 
4

>  <SCORE.INTER.VDW>  (48) 
-15.2176

>  <SCORE.INTER.norm>  (48) 
-0.420487

>  <SCORE.INTRA>  (48) 
-8.87795

>  <SCORE.INTRA.DIHEDRAL>  (48) 
-7.3438

>  <SCORE.INTRA.DIHEDRAL.0>  (48) 
10.6104

>  <SCORE.INTRA.POLAR>  (48) 
-1.05116

>  <SCORE.INTRA.POLAR.0>  (48) 
0

>  <SCORE.INTRA.REPUL>  (48) 
0

>  <SCORE.INTRA.REPUL.0>  (48) 
0

>  <SCORE.INTRA.VDW>  (48) 
-1.63212

>  <SCORE.INTRA.VDW.0>  (48) 
-1.96818

>  <SCORE.INTRA.norm>  (48) 
-0.42276

>  <SCORE.RESTR>  (48) 
0

>  <SCORE.RESTR.CAVITY>  (48) 
0

>  <SCORE.RESTR.norm>  (48) 
0

>  <SCORE.SYSTEM>  (48) 
-0.0249196

>  <SCORE.SYSTEM.CONST>  (48) 
0

>  <SCORE.SYSTEM.DIHEDRAL>  (48) 
0.273398

>  <SCORE.SYSTEM.VDW>  (48) 
-0.161618

>  <SCORE.SYSTEM.norm>  (48) 
-0.00118665

>  <SCORE.heavy>  (48) 
21

>  <SCORE.norm>  (48) 
-0.844433

>  <Predicted_Rank>  (48) 
48.0

$$$$
7lng_h
     RDKit          3D

 24 26  0  0  0  0  0  0  0  0999 V2000
   12.8987   12.5457    3.1787 P   0  0  1  0  0  0  0  0  0  0  0  0
   13.1928   13.6295    2.2099 O   0  0  0  0  0  0  0  0  0  0  0  0
   13.4784   11.1889    3.0102 O   0  0  0  0  0  0  0  0  0  0  0  0
   14.7513   13.8026    6.4805 C   0  0  0  0  0  0  0  0  0  0  0  0
   14.5680   12.5431    7.1382 O   0  0  0  0  0  0  0  0  0  0  0  0
   14.7218   13.3546    5.0241 C   0  0  2  0  0  0  0  0  0  0  0  0
   13.3480   13.0054    4.6661 O   0  0  0  0  0  0  0  0  0  0  0  0
   15.5397   12.1020    4.9947 C   0  0  1  0  0  0  0  0  0  0  0  0
   16.9791   12.3393    4.9733 O   0  0  0  0  0  0  0  0  0  0  0  0
   15.1025   11.4664    6.3070 C   0  0  2  0  0  0  0  0  0  0  0  0
   15.1699    6.5230    5.2080 N   0  0  0  0  0  0  0  0  0  0  0  0
   16.2240    7.4122    5.5421 C   0  0  0  0  0  0  0  0  0  0  0  0
   17.4933    6.9829    5.6000 N   0  0  0  0  0  0  0  0  0  0  0  0
   15.9223    8.7043    5.8007 N   0  0  0  0  0  0  0  0  0  0  0  0
   14.6460    9.1309    5.7379 C   0  0  0  0  0  0  0  0  0  0  0  0
   13.6154    8.3085    5.4334 C   0  0  0  0  0  0  0  0  0  0  0  0
   13.8380    7.0168    5.1611 C   0  0  0  0  0  0  0  0  0  0  0  0
   12.9089    6.2482    4.8764 O   0  0  0  0  0  0  0  0  0  0  0  0
   12.4924    9.0312    5.4513 N   0  0  0  0  0  0  0  0  0  0  0  0
   12.8151   10.2799    5.7720 C   0  0  0  0  0  0  0  0  0  0  0  0
   14.1508   10.3422    5.9637 N   0  0  0  0  0  0  0  0  0  0  0  0
   17.2092   12.8423    4.1886 H   0  0  0  0  0  0  0  0  0  0  0  0
   17.9693    6.9320    6.4893 H   0  0  0  0  0  0  0  0  0  0  0  0
   17.9729    6.7103    4.7540 H   0  0  0  0  0  0  0  0  0  0  0  0
  1  2  1  6
  1  3  2  0
  1  7  1  0
  4  5  1  0
  4  6  1  0
  5 10  1  0
  6  7  1  1
  6  8  1  0
  8  9  1  1
  8 10  1  0
  9 22  1  0
 10 21  1  6
 11 12  1  0
 11 17  1  0
 12 13  1  0
 12 14  2  0
 13 23  1  0
 13 24  1  0
 14 15  1  0
 15 16  2  0
 15 21  1  0
 16 17  1  0
 16 19  1  0
 17 18  2  0
 19 20  2  0
 20 21  1  0
M  CHG  1   2  -1
M  END
>  <CHROM.0>  (49) 
-177.49124053

>  <CHROM.1>  (49) 
-60.38743076,177.14626032,-60.39095650,-151.63916191,-111.25689134,14.40225607
10.47849403,5.01971235,1.77234158,-0.56822916,-0.07851493

>  <Name>  (49) 
7lng_h

>  <RI>  (49) 
8.5107e+06

>  <Rbt.Current_Directory>  (49) 
/home/jta30/NA_complexes/7lng

>  <Rbt.Executable>  (49) 
rbdock ($Id: //depot/dev/client3/rdock/2013.1/src/exe/rbdock.cxx#4 $)

>  <Rbt.Library>  (49) 
libRbt.so (2013.1, Build901 2013/11/27)

>  <Rbt.Parameter_File>  (49) 
/software/dev_tools/swtree/cs400_centos7.2_pe2016-08/rdock/2013.1/centos7.2_conda/build/data/scripts/dock.prm

>  <Rbt.Receptor>  (49) 
7lng.prm

>  <SCORE>  (49) 
-11.6024

>  <SCORE.INTER>  (49) 
-6.03031

>  <SCORE.INTER.CONST>  (49) 
1

>  <SCORE.INTER.POLAR>  (49) 
-1.01909

>  <SCORE.INTER.REPUL>  (49) 
0.104852

>  <SCORE.INTER.ROT>  (49) 
4

>  <SCORE.INTER.VDW>  (49) 
-12.4897

>  <SCORE.INTER.norm>  (49) 
-0.287158

>  <SCORE.INTRA>  (49) 
-5.52831

>  <SCORE.INTRA.DIHEDRAL>  (49) 
-8.24868

>  <SCORE.INTRA.DIHEDRAL.0>  (49) 
10.6104

>  <SCORE.INTRA.POLAR>  (49) 
0

>  <SCORE.INTRA.POLAR.0>  (49) 
0

>  <SCORE.INTRA.REPUL>  (49) 
0

>  <SCORE.INTRA.REPUL.0>  (49) 
0

>  <SCORE.INTRA.VDW>  (49) 
-1.40397

>  <SCORE.INTRA.VDW.0>  (49) 
-1.96818

>  <SCORE.INTRA.norm>  (49) 
-0.263253

>  <SCORE.RESTR>  (49) 
0

>  <SCORE.RESTR.CAVITY>  (49) 
0

>  <SCORE.RESTR.norm>  (49) 
0

>  <SCORE.SYSTEM>  (49) 
-0.0438135

>  <SCORE.SYSTEM.CONST>  (49) 
0

>  <SCORE.SYSTEM.DIHEDRAL>  (49) 
0.298402

>  <SCORE.SYSTEM.VDW>  (49) 
-0.193015

>  <SCORE.SYSTEM.norm>  (49) 
-0.00208636

>  <SCORE.heavy>  (49) 
21

>  <SCORE.norm>  (49) 
-0.552497

>  <Predicted_Rank>  (49) 
49.0

$$$$
7lng_h
     RDKit          3D

 24 26  0  0  0  0  0  0  0  0999 V2000
   14.3263   12.2285    5.9970 P   0  0  1  0  0  0  0  0  0  0  0  0
   15.6857   11.9114    6.4981 O   0  0  0  0  0  0  0  0  0  0  0  0
   14.0906   13.3910    5.1034 O   0  0  0  0  0  0  0  0  0  0  0  0
   13.0512    8.6778    4.6997 C   0  0  0  0  0  0  0  0  0  0  0  0
   14.2048    8.5424    3.8609 O   0  0  0  0  0  0  0  0  0  0  0  0
   13.5994    9.6207    5.7642 C   0  0  2  0  0  0  0  0  0  0  0  0
   13.7321   10.9573    5.1869 O   0  0  0  0  0  0  0  0  0  0  0  0
   14.9733    9.1055    6.0576 C   0  0  1  0  0  0  0  0  0  0  0  0
   14.9915    7.9560    6.9559 O   0  0  0  0  0  0  0  0  0  0  0  0
   15.4193    8.7192    4.6544 C   0  0  2  0  0  0  0  0  0  0  0  0
   19.5896   11.1380    6.2060 N   0  0  0  0  0  0  0  0  0  0  0  0
   18.8330   10.1075    6.8219 C   0  0  0  0  0  0  0  0  0  0  0  0
   19.1845    9.6192    8.0205 N   0  0  0  0  0  0  0  0  0  0  0  0
   17.7476    9.6275    6.1749 N   0  0  0  0  0  0  0  0  0  0  0  0
   17.3971   10.1240    4.9725 C   0  0  0  0  0  0  0  0  0  0  0  0
   18.1015   11.0984    4.3515 C   0  0  0  0  0  0  0  0  0  0  0  0
   19.1857   11.6256    4.9335 C   0  0  0  0  0  0  0  0  0  0  0  0
   19.8422   12.5209    4.3835 O   0  0  0  0  0  0  0  0  0  0  0  0
   17.4984   11.3666    3.1904 N   0  0  0  0  0  0  0  0  0  0  0  0
   16.4428   10.5662    3.0837 C   0  0  0  0  0  0  0  0  0  0  0  0
   16.3848    9.7837    4.1834 N   0  0  0  0  0  0  0  0  0  0  0  0
   14.6758    8.2219    7.8228 H   0  0  0  0  0  0  0  0  0  0  0  0
   18.7147    9.9408    8.8546 H   0  0  0  0  0  0  0  0  0  0  0  0
   19.9193    8.9295    8.0887 H   0  0  0  0  0  0  0  0  0  0  0  0
  1  2  1  6
  1  3  2  0
  1  7  1  0
  4  5  1  0
  4  6  1  0
  5 10  1  0
  6  7  1  6
  6  8  1  0
  8  9  1  1
  8 10  1  0
  9 22  1  0
 10 21  1  6
 11 12  1  0
 11 17  1  0
 12 13  1  0
 12 14  2  0
 13 23  1  0
 13 24  1  0
 14 15  1  0
 15 16  2  0
 15 21  1  0
 16 17  1  0
 16 19  1  0
 17 18  2  0
 19 20  2  0
 20 21  1  0
M  CHG  1   2  -1
M  END
>  <CHROM.0>  (50) 
-62.31326656

>  <CHROM.1>  (50) 
56.55101891,-178.09176651,-65.71228386,169.95125866,99.19956626,16.22381236
10.51905775,5.37159569,2.97036041,0.13269455,2.77916863

>  <Name>  (50) 
7lng_h

>  <RI>  (50) 
8.5107e+06

>  <Rbt.Current_Directory>  (50) 
/home/jta30/NA_complexes/7lng

>  <Rbt.Executable>  (50) 
rbdock ($Id: //depot/dev/client3/rdock/2013.1/src/exe/rbdock.cxx#4 $)

>  <Rbt.Library>  (50) 
libRbt.so (2013.1, Build901 2013/11/27)

>  <Rbt.Parameter_File>  (50) 
/software/dev_tools/swtree/cs400_centos7.2_pe2016-08/rdock/2013.1/centos7.2_conda/build/data/scripts/dock.prm

>  <Rbt.Receptor>  (50) 
7lng.prm

>  <SCORE>  (50) 
-20.2202

>  <SCORE.INTER>  (50) 
-14.9748

>  <SCORE.INTER.CONST>  (50) 
1

>  <SCORE.INTER.POLAR>  (50) 
-3.62523

>  <SCORE.INTER.REPUL>  (50) 
0.0235838

>  <SCORE.INTER.ROT>  (50) 
4

>  <SCORE.INTER.VDW>  (50) 
-12.1669

>  <SCORE.INTER.norm>  (50) 
-0.713084

>  <SCORE.INTRA>  (50) 
-5.22146

>  <SCORE.INTRA.DIHEDRAL>  (50) 
-8.01246

>  <SCORE.INTRA.DIHEDRAL.0>  (50) 
10.6104

>  <SCORE.INTRA.POLAR>  (50) 
0

>  <SCORE.INTRA.POLAR.0>  (50) 
0

>  <SCORE.INTRA.REPUL>  (50) 
0

>  <SCORE.INTRA.REPUL.0>  (50) 
0

>  <SCORE.INTRA.VDW>  (50) 
-1.21523

>  <SCORE.INTRA.VDW.0>  (50) 
-1.96818

>  <SCORE.INTRA.norm>  (50) 
-0.248641

>  <SCORE.RESTR>  (50) 
0

>  <SCORE.RESTR.CAVITY>  (50) 
0

>  <SCORE.RESTR.norm>  (50) 
0

>  <SCORE.SYSTEM>  (50) 
-0.0239566

>  <SCORE.SYSTEM.CONST>  (50) 
0

>  <SCORE.SYSTEM.DIHEDRAL>  (50) 
0.29411

>  <SCORE.SYSTEM.VDW>  (50) 
-0.171012

>  <SCORE.SYSTEM.norm>  (50) 
-0.00114079

>  <SCORE.heavy>  (50) 
21

>  <SCORE.norm>  (50) 
-0.962866

>  <Predicted_Rank>  (50) 
50.0

$$$$
7lng_h
     RDKit          3D

 24 26  0  0  0  0  0  0  0  0999 V2000
   12.6136   10.2248    4.9296 P   0  0  1  0  0  0  0  0  0  0  0  0
   11.1527   10.1817    5.1818 O   0  0  0  0  0  0  0  0  0  0  0  0
   13.5667   10.5965    6.0062 O   0  0  0  0  0  0  0  0  0  0  0  0
   13.6401    6.4047    4.4482 C   0  0  0  0  0  0  0  0  0  0  0  0
   14.9481    6.7113    3.9504 O   0  0  0  0  0  0  0  0  0  0  0  0
   13.3761    7.6428    5.2968 C   0  0  2  0  0  0  0  0  0  0  0  0
   13.1215    8.7767    4.4097 O   0  0  0  0  0  0  0  0  0  0  0  0
   14.6658    7.8959    6.0120 C   0  0  1  0  0  0  0  0  0  0  0  0
   14.8687    7.0442    7.1791 O   0  0  0  0  0  0  0  0  0  0  0  0
   15.6555    7.5629    4.9044 C   0  0  2  0  0  0  0  0  0  0  0  0
   18.9132   11.2277    6.1719 N   0  0  0  0  0  0  0  0  0  0  0  0
   18.5757   10.0186    6.8336 C   0  0  0  0  0  0  0  0  0  0  0  0
   19.1481    9.6910    8.0013 N   0  0  0  0  0  0  0  0  0  0  0  0
   17.6626    9.2020    6.2619 N   0  0  0  0  0  0  0  0  0  0  0  0
   17.0883    9.5376    5.0904 C   0  0  0  0  0  0  0  0  0  0  0  0
   17.3944   10.6766    4.4270 C   0  0  0  0  0  0  0  0  0  0  0  0
   18.2866   11.5363    4.9341 C   0  0  0  0  0  0  0  0  0  0  0  0
   18.5780   12.5862    4.3444 O   0  0  0  0  0  0  0  0  0  0  0  0
   16.6586   10.7151    3.3131 N   0  0  0  0  0  0  0  0  0  0  0  0
   15.9146    9.6145    3.2764 C   0  0  0  0  0  0  0  0  0  0  0  0
   16.1891    8.8744    4.3727 N   0  0  0  0  0  0  0  0  0  0  0  0
   15.5179    7.4470    7.7605 H   0  0  0  0  0  0  0  0  0  0  0  0
   19.9334    9.0562    8.0185 H   0  0  0  0  0  0  0  0  0  0  0  0
   18.7936   10.0794    8.8636 H   0  0  0  0  0  0  0  0  0  0  0  0
  1  2  1  1
  1  3  2  0
  1  7  1  0
  4  5  1  0
  4  6  1  0
  5 10  1  0
  6  7  1  6
  6  8  1  0
  8  9  1  1
  8 10  1  0
  9 22  1  0
 10 21  1  6
 11 12  1  0
 11 17  1  0
 12 13  1  0
 12 14  2  0
 13 23  1  0
 13 24  1  0
 14 15  1  0
 15 16  2  0
 15 21  1  0
 16 17  1  0
 16 19  1  0
 17 18  2  0
 19 20  2  0
 20 21  1  0
M  CHG  1   2  -1
M  END
>  <CHROM.0>  (51) 
60.61939542

>  <CHROM.1>  (51) 
-79.65649708,171.86767727,-159.64326953,-164.74519458,-97.89497041,15.56354823
9.39388370,5.22731093,2.83782669,0.25261659,2.80048110

>  <Name>  (51) 
7lng_h

>  <RI>  (51) 
8.5107e+06

>  <Rbt.Current_Directory>  (51) 
/home/jta30/NA_complexes/7lng

>  <Rbt.Executable>  (51) 
rbdock ($Id: //depot/dev/client3/rdock/2013.1/src/exe/rbdock.cxx#4 $)

>  <Rbt.Library>  (51) 
libRbt.so (2013.1, Build901 2013/11/27)

>  <Rbt.Parameter_File>  (51) 
/software/dev_tools/swtree/cs400_centos7.2_pe2016-08/rdock/2013.1/centos7.2_conda/build/data/scripts/dock.prm

>  <Rbt.Receptor>  (51) 
7lng.prm

>  <SCORE>  (51) 
-17.9934

>  <SCORE.INTER>  (51) 
-14.3879

>  <SCORE.INTER.CONST>  (51) 
1

>  <SCORE.INTER.POLAR>  (51) 
-3.1249

>  <SCORE.INTER.REPUL>  (51) 
0

>  <SCORE.INTER.ROT>  (51) 
4

>  <SCORE.INTER.VDW>  (51) 
-13.1633

>  <SCORE.INTER.norm>  (51) 
-0.68514

>  <SCORE.INTRA>  (51) 
-4.19517

>  <SCORE.INTRA.DIHEDRAL>  (51) 
-6.03592

>  <SCORE.INTRA.DIHEDRAL.0>  (51) 
10.6104

>  <SCORE.INTRA.POLAR>  (51) 
0

>  <SCORE.INTRA.POLAR.0>  (51) 
0

>  <SCORE.INTRA.REPUL>  (51) 
0

>  <SCORE.INTRA.REPUL.0>  (51) 
0

>  <SCORE.INTRA.VDW>  (51) 
-1.17721

>  <SCORE.INTRA.VDW.0>  (51) 
-1.96818

>  <SCORE.INTRA.norm>  (51) 
-0.19977

>  <SCORE.RESTR>  (51) 
0

>  <SCORE.RESTR.CAVITY>  (51) 
0

>  <SCORE.RESTR.norm>  (51) 
0

>  <SCORE.SYSTEM>  (51) 
0.589717

>  <SCORE.SYSTEM.CONST>  (51) 
0

>  <SCORE.SYSTEM.DIHEDRAL>  (51) 
0.271462

>  <SCORE.SYSTEM.VDW>  (51) 
0.453986

>  <SCORE.SYSTEM.norm>  (51) 
0.0280818

>  <SCORE.heavy>  (51) 
21

>  <SCORE.norm>  (51) 
-0.856828

>  <Predicted_Rank>  (51) 
51.0

$$$$
7lng_h
     RDKit          3D

 24 26  0  0  0  0  0  0  0  0999 V2000
   14.8828    8.0223    6.3820 P   0  0  1  0  0  0  0  0  0  0  0  0
   13.8176    8.0514    5.3505 O   0  0  0  0  0  0  0  0  0  0  0  0
   14.9194    6.9572    7.4163 O   0  0  0  0  0  0  0  0  0  0  0  0
   18.7478    7.8775    5.4038 C   0  0  0  0  0  0  0  0  0  0  0  0
   18.6901    9.1575    4.7627 O   0  0  0  0  0  0  0  0  0  0  0  0
   17.6000    8.0196    6.3962 C   0  0  2  0  0  0  0  0  0  0  0  0
   16.3349    7.9535    5.6664 O   0  0  0  0  0  0  0  0  0  0  0  0
   17.7433    9.4030    6.9482 C   0  0  1  0  0  0  0  0  0  0  0  0
   18.7597    9.5193    7.9885 O   0  0  0  0  0  0  0  0  0  0  0  0
   18.1522   10.1526    5.6880 C   0  0  2  0  0  0  0  0  0  0  0  0
   15.1039   13.8956    7.2201 N   0  0  0  0  0  0  0  0  0  0  0  0
   16.2475   13.3221    7.8340 C   0  0  0  0  0  0  0  0  0  0  0  0
   16.6817   13.7614    9.0245 N   0  0  0  0  0  0  0  0  0  0  0  0
   16.8915   12.3210    7.1934 N   0  0  0  0  0  0  0  0  0  0  0  0
   16.4491   11.8815    5.9993 C   0  0  0  0  0  0  0  0  0  0  0  0
   15.3692   12.4125    5.3802 C   0  0  0  0  0  0  0  0  0  0  0  0
   14.6784   13.4041    5.9562 C   0  0  0  0  0  0  0  0  0  0  0  0
   13.6849   13.9012    5.4079 O   0  0  0  0  0  0  0  0  0  0  0  0
   15.1932   11.7609    4.2277 N   0  0  0  0  0  0  0  0  0  0  0  0
   16.1526   10.8470    4.1242 C   0  0  0  0  0  0  0  0  0  0  0  0
   16.9424   10.9284    5.2171 N   0  0  0  0  0  0  0  0  0  0  0  0
   19.5158    8.9735    7.7600 H   0  0  0  0  0  0  0  0  0  0  0  0
   17.6687   13.7492    9.2381 H   0  0  0  0  0  0  0  0  0  0  0  0
   16.0213   14.1044    9.7073 H   0  0  0  0  0  0  0  0  0  0  0  0
  1  2  1  6
  1  3  2  0
  1  7  1  0
  4  5  1  0
  4  6  1  0
  5 10  1  0
  6  7  1  6
  6  8  1  0
  8  9  1  1
  8 10  1  0
  9 22  1  0
 10 21  1  6
 11 12  1  0
 11 17  1  0
 12 13  1  0
 12 14  2  0
 13 23  1  0
 13 24  1  0
 14 15  1  0
 15 16  2  0
 15 21  1  0
 16 17  1  0
 16 19  1  0
 17 18  2  0
 19 20  2  0
 20 21  1  0
M  CHG  1   2  -1
M  END
>  <CHROM.0>  (52) 
-179.17337363

>  <CHROM.1>  (52) 
174.94271628,178.10366288,38.77424455,-177.31134282,-147.57779732,16.26238177
10.42433951,6.21412710,1.33565863,0.32799191,-2.96453182

>  <Name>  (52) 
7lng_h

>  <RI>  (52) 
8.5107e+06

>  <Rbt.Current_Directory>  (52) 
/home/jta30/NA_complexes/7lng

>  <Rbt.Executable>  (52) 
rbdock ($Id: //depot/dev/client3/rdock/2013.1/src/exe/rbdock.cxx#4 $)

>  <Rbt.Library>  (52) 
libRbt.so (2013.1, Build901 2013/11/27)

>  <Rbt.Parameter_File>  (52) 
/software/dev_tools/swtree/cs400_centos7.2_pe2016-08/rdock/2013.1/centos7.2_conda/build/data/scripts/dock.prm

>  <Rbt.Receptor>  (52) 
7lng.prm

>  <SCORE>  (52) 
-17.9216

>  <SCORE.INTER>  (52) 
-14.1106

>  <SCORE.INTER.CONST>  (52) 
1

>  <SCORE.INTER.POLAR>  (52) 
-2.82427

>  <SCORE.INTER.REPUL>  (52) 
0

>  <SCORE.INTER.ROT>  (52) 
4

>  <SCORE.INTER.VDW>  (52) 
-13.9081

>  <SCORE.INTER.norm>  (52) 
-0.671934

>  <SCORE.INTRA>  (52) 
-3.76804

>  <SCORE.INTRA.DIHEDRAL>  (52) 
-6.33351

>  <SCORE.INTRA.DIHEDRAL.0>  (52) 
10.6104

>  <SCORE.INTRA.POLAR>  (52) 
0

>  <SCORE.INTRA.POLAR.0>  (52) 
0

>  <SCORE.INTRA.REPUL>  (52) 
0

>  <SCORE.INTRA.REPUL.0>  (52) 
0

>  <SCORE.INTRA.VDW>  (52) 
-0.601284

>  <SCORE.INTRA.VDW.0>  (52) 
-1.96818

>  <SCORE.INTRA.norm>  (52) 
-0.17943

>  <SCORE.RESTR>  (52) 
0

>  <SCORE.RESTR.CAVITY>  (52) 
0

>  <SCORE.RESTR.norm>  (52) 
0

>  <SCORE.SYSTEM>  (52) 
-0.0429651

>  <SCORE.SYSTEM.CONST>  (52) 
0

>  <SCORE.SYSTEM.DIHEDRAL>  (52) 
0.27283

>  <SCORE.SYSTEM.VDW>  (52) 
-0.17938

>  <SCORE.SYSTEM.norm>  (52) 
-0.00204596

>  <SCORE.heavy>  (52) 
21

>  <SCORE.norm>  (52) 
-0.853411

>  <Predicted_Rank>  (52) 
52.0

$$$$
7lng_h
     RDKit          3D

 24 26  0  0  0  0  0  0  0  0999 V2000
   12.7711   10.3748    5.2206 P   0  0  1  0  0  0  0  0  0  0  0  0
   12.8977   11.8113    4.8742 O   0  0  0  0  0  0  0  0  0  0  0  0
   11.5602    9.6001    4.8473 O   0  0  0  0  0  0  0  0  0  0  0  0
   15.4528    7.6770    4.0211 C   0  0  0  0  0  0  0  0  0  0  0  0
   16.5345    8.3578    4.6684 O   0  0  0  0  0  0  0  0  0  0  0  0
   14.2850    8.1439    4.8818 C   0  0  2  0  0  0  0  0  0  0  0  0
   14.0062    9.5465    4.5774 O   0  0  0  0  0  0  0  0  0  0  0  0
   14.7938    8.0683    6.2869 C   0  0  1  0  0  0  0  0  0  0  0  0
   14.7711    6.7224    6.8495 O   0  0  0  0  0  0  0  0  0  0  0  0
   16.2201    8.5588    6.0814 C   0  0  2  0  0  0  0  0  0  0  0  0
   19.4635   11.7479    8.3086 N   0  0  0  0  0  0  0  0  0  0  0  0
   19.6337   10.4085    7.8717 C   0  0  0  0  0  0  0  0  0  0  0  0
   20.8065    9.7774    8.0303 N   0  0  0  0  0  0  0  0  0  0  0  0
   18.5870    9.7797    7.2918 N   0  0  0  0  0  0  0  0  0  0  0  0
   17.4103   10.4173    7.1379 C   0  0  0  0  0  0  0  0  0  0  0  0
   17.2162   11.6971    7.5325 C   0  0  0  0  0  0  0  0  0  0  0  0
   18.2059   12.3822    8.1186 C   0  0  0  0  0  0  0  0  0  0  0  0
   18.0476   13.5533    8.4905 O   0  0  0  0  0  0  0  0  0  0  0  0
   15.9552   12.0302    7.2450 N   0  0  0  0  0  0  0  0  0  0  0  0
   15.3759   10.9807    6.6713 C   0  0  0  0  0  0  0  0  0  0  0  0
   16.2813    9.9814    6.5912 N   0  0  0  0  0  0  0  0  0  0  0  0
   14.9868    6.0852    6.1645 H   0  0  0  0  0  0  0  0  0  0  0  0
   21.6724   10.2838    7.9138 H   0  0  0  0  0  0  0  0  0  0  0  0
   20.8233    8.7956    8.2665 H   0  0  0  0  0  0  0  0  0  0  0  0
  1  2  1  6
  1  3  2  0
  1  7  1  0
  4  5  1  0
  4  6  1  0
  5 10  1  0
  6  7  1  6
  6  8  1  0
  8  9  1  6
  8 10  1  0
  9 22  1  0
 10 21  1  6
 11 12  1  0
 11 17  1  0
 12 13  1  0
 12 14  2  0
 13 23  1  0
 13 24  1  0
 14 15  1  0
 15 16  2  0
 15 21  1  0
 16 17  1  0
 16 19  1  0
 17 18  2  0
 19 20  2  0
 20 21  1  0
M  CHG  1   2  -1
M  END
>  <CHROM.0>  (53) 
-60.76133880

>  <CHROM.1>  (53) 
171.15265117,175.89903376,36.36552039,-93.29857311,-37.31849009,15.95324882
10.05327558,6.34576988,2.72399503,0.38000684,-2.84446414

>  <Name>  (53) 
7lng_h

>  <RI>  (53) 
8.5107e+06

>  <Rbt.Current_Directory>  (53) 
/home/jta30/NA_complexes/7lng

>  <Rbt.Executable>  (53) 
rbdock ($Id: //depot/dev/client3/rdock/2013.1/src/exe/rbdock.cxx#4 $)

>  <Rbt.Library>  (53) 
libRbt.so (2013.1, Build901 2013/11/27)

>  <Rbt.Parameter_File>  (53) 
/software/dev_tools/swtree/cs400_centos7.2_pe2016-08/rdock/2013.1/centos7.2_conda/build/data/scripts/dock.prm

>  <Rbt.Receptor>  (53) 
7lng.prm

>  <SCORE>  (53) 
-17.1306

>  <SCORE.INTER>  (53) 
-14.252

>  <SCORE.INTER.CONST>  (53) 
1

>  <SCORE.INTER.POLAR>  (53) 
-2.04274

>  <SCORE.INTER.REPUL>  (53) 
0

>  <SCORE.INTER.ROT>  (53) 
4

>  <SCORE.INTER.VDW>  (53) 
-16.7067

>  <SCORE.INTER.norm>  (53) 
-0.678665

>  <SCORE.INTRA>  (53) 
-2.85415

>  <SCORE.INTRA.DIHEDRAL>  (53) 
-5.75502

>  <SCORE.INTRA.DIHEDRAL.0>  (53) 
10.6104

>  <SCORE.INTRA.POLAR>  (53) 
0

>  <SCORE.INTRA.POLAR.0>  (53) 
0

>  <SCORE.INTRA.REPUL>  (53) 
0

>  <SCORE.INTRA.REPUL.0>  (53) 
0

>  <SCORE.INTRA.VDW>  (53) 
0.0233623

>  <SCORE.INTRA.VDW.0>  (53) 
-1.96818

>  <SCORE.INTRA.norm>  (53) 
-0.135912

>  <SCORE.RESTR>  (53) 
0

>  <SCORE.RESTR.CAVITY>  (53) 
0

>  <SCORE.RESTR.norm>  (53) 
0

>  <SCORE.SYSTEM>  (53) 
-0.0244927

>  <SCORE.SYSTEM.CONST>  (53) 
0

>  <SCORE.SYSTEM.DIHEDRAL>  (53) 
0.272357

>  <SCORE.SYSTEM.VDW>  (53) 
-0.160671

>  <SCORE.SYSTEM.norm>  (53) 
-0.00116632

>  <SCORE.heavy>  (53) 
21

>  <SCORE.norm>  (53) 
-0.815743

>  <Predicted_Rank>  (53) 
53.0

$$$$
7lng_h
     RDKit          3D

 24 26  0  0  0  0  0  0  0  0999 V2000
   17.5150    6.9298    5.2276 P   0  0  1  0  0  0  0  0  0  0  0  0
   16.5832    7.0983    6.3691 O   0  0  0  0  0  0  0  0  0  0  0  0
   17.0395    6.4098    3.9202 O   0  0  0  0  0  0  0  0  0  0  0  0
   19.5702   10.3480    5.1283 C   0  0  0  0  0  0  0  0  0  0  0  0
   18.3670   11.1127    5.2707 O   0  0  0  0  0  0  0  0  0  0  0  0
   19.1376    9.0388    5.7776 C   0  0  2  0  0  0  0  0  0  0  0  0
   18.2138    8.3493    4.8783 O   0  0  0  0  0  0  0  0  0  0  0  0
   18.3741    9.4525    6.9961 C   0  0  1  0  0  0  0  0  0  0  0  0
   19.2217    9.8220    8.1246 O   0  0  0  0  0  0  0  0  0  0  0  0
   17.6266   10.6593    6.4463 C   0  0  2  0  0  0  0  0  0  0  0  0
   14.2106   10.3597    2.7192 N   0  0  0  0  0  0  0  0  0  0  0  0
   15.5656   10.7811    2.7024 C   0  0  0  0  0  0  0  0  0  0  0  0
   16.1419   11.1976    1.5653 N   0  0  0  0  0  0  0  0  0  0  0  0
   16.2650   10.7550    3.8588 N   0  0  0  0  0  0  0  0  0  0  0  0
   15.6801   10.3387    4.9988 C   0  0  0  0  0  0  0  0  0  0  0  0
   14.3943    9.9198    5.0490 C   0  0  0  0  0  0  0  0  0  0  0  0
   13.6382    9.9219    3.9442 C   0  0  0  0  0  0  0  0  0  0  0  0
   12.4580    9.5460    3.9696 O   0  0  0  0  0  0  0  0  0  0  0  0
   14.1206    9.5802    6.3113 N   0  0  0  0  0  0  0  0  0  0  0  0
   15.2191    9.7733    7.0339 C   0  0  0  0  0  0  0  0  0  0  0  0
   16.1938   10.2319    6.2187 N   0  0  0  0  0  0  0  0  0  0  0  0
   18.6713   10.0834    8.8666 H   0  0  0  0  0  0  0  0  0  0  0  0
   16.3836   12.1712    1.4487 H   0  0  0  0  0  0  0  0  0  0  0  0
   16.3343   10.5373    0.8257 H   0  0  0  0  0  0  0  0  0  0  0  0
  1  2  1  1
  1  3  2  0
  1  7  1  0
  4  5  1  0
  4  6  1  0
  5 10  1  0
  6  7  1  6
  6  8  1  0
  8  9  1  1
  8 10  1  0
  9 22  1  0
 10 21  1  6
 11 12  1  0
 11 17  1  0
 12 13  1  0
 12 14  2  0
 13 23  1  0
 13 24  1  0
 14 15  1  0
 15 16  2  0
 15 21  1  0
 16 17  1  0
 16 19  1  0
 17 18  2  0
 19 20  2  0
 20 21  1  0
M  CHG  1   2  -1
M  END
>  <CHROM.0>  (54) 
59.81678267

>  <CHROM.1>  (54) 
66.19213559,-178.98922319,179.47197991,-2.55423234,110.44847432,16.56971767
9.41735289,5.07836929,0.43490759,0.45285865,2.74932694

>  <Name>  (54) 
7lng_h

>  <RI>  (54) 
8.5107e+06

>  <Rbt.Current_Directory>  (54) 
/home/jta30/NA_complexes/7lng

>  <Rbt.Executable>  (54) 
rbdock ($Id: //depot/dev/client3/rdock/2013.1/src/exe/rbdock.cxx#4 $)

>  <Rbt.Library>  (54) 
libRbt.so (2013.1, Build901 2013/11/27)

>  <Rbt.Parameter_File>  (54) 
/software/dev_tools/swtree/cs400_centos7.2_pe2016-08/rdock/2013.1/centos7.2_conda/build/data/scripts/dock.prm

>  <Rbt.Receptor>  (54) 
7lng.prm

>  <SCORE>  (54) 
-12.569

>  <SCORE.INTER>  (54) 
-7.58887

>  <SCORE.INTER.CONST>  (54) 
1

>  <SCORE.INTER.POLAR>  (54) 
-1.71058

>  <SCORE.INTER.REPUL>  (54) 
0

>  <SCORE.INTER.ROT>  (54) 
4

>  <SCORE.INTER.VDW>  (54) 
-11.1729

>  <SCORE.INTER.norm>  (54) 
-0.361375

>  <SCORE.INTRA>  (54) 
-5.56805

>  <SCORE.INTRA.DIHEDRAL>  (54) 
-8.08129

>  <SCORE.INTRA.DIHEDRAL.0>  (54) 
10.6104

>  <SCORE.INTRA.POLAR>  (54) 
0

>  <SCORE.INTRA.POLAR.0>  (54) 
0

>  <SCORE.INTRA.REPUL>  (54) 
0

>  <SCORE.INTRA.REPUL.0>  (54) 
0

>  <SCORE.INTRA.VDW>  (54) 
-1.5274

>  <SCORE.INTRA.VDW.0>  (54) 
-1.96818

>  <SCORE.INTRA.norm>  (54) 
-0.265145

>  <SCORE.RESTR>  (54) 
0

>  <SCORE.RESTR.CAVITY>  (54) 
0

>  <SCORE.RESTR.norm>  (54) 
0

>  <SCORE.SYSTEM>  (54) 
0.587879

>  <SCORE.SYSTEM.CONST>  (54) 
0

>  <SCORE.SYSTEM.DIHEDRAL>  (54) 
0.269864

>  <SCORE.SYSTEM.VDW>  (54) 
0.452947

>  <SCORE.SYSTEM.norm>  (54) 
0.0279942

>  <SCORE.heavy>  (54) 
21

>  <SCORE.norm>  (54) 
-0.598526

>  <Predicted_Rank>  (54) 
54.0

$$$$
7lng_h
     RDKit          3D

 24 26  0  0  0  0  0  0  0  0999 V2000
   13.4740   10.5097    4.7340 P   0  0  1  0  0  0  0  0  0  0  0  0
   13.5521   11.2923    3.4767 O   0  0  0  0  0  0  0  0  0  0  0  0
   12.3207   10.6568    5.6581 O   0  0  0  0  0  0  0  0  0  0  0  0
   13.5513    6.5214    4.7352 C   0  0  0  0  0  0  0  0  0  0  0  0
   14.8743    6.4820    4.1868 O   0  0  0  0  0  0  0  0  0  0  0  0
   13.5822    7.8827    5.4198 C   0  0  2  0  0  0  0  0  0  0  0  0
   13.5341    8.9260    4.3968 O   0  0  0  0  0  0  0  0  0  0  0  0
   14.9229    7.9455    6.0813 C   0  0  1  0  0  0  0  0  0  0  0  0
   14.9897    7.2214    7.3461 O   0  0  0  0  0  0  0  0  0  0  0  0
   15.7788    7.2772    5.0145 C   0  0  2  0  0  0  0  0  0  0  0  0
   19.4666   10.6261    5.9282 N   0  0  0  0  0  0  0  0  0  0  0  0
   18.8931    9.6297    6.7600 C   0  0  0  0  0  0  0  0  0  0  0  0
   19.3155    9.4606    8.0216 N   0  0  0  0  0  0  0  0  0  0  0  0
   17.9092    8.8530    6.2540 N   0  0  0  0  0  0  0  0  0  0  0  0
   17.4865    9.0293    4.9870 C   0  0  0  0  0  0  0  0  0  0  0  0
   18.0182    9.9618    4.1630 C   0  0  0  0  0  0  0  0  0  0  0  0
   18.9933   10.7706    4.5959 C   0  0  0  0  0  0  0  0  0  0  0  0
   19.4908   11.6330    3.8586 O   0  0  0  0  0  0  0  0  0  0  0  0
   17.3852    9.8838    2.9895 N   0  0  0  0  0  0  0  0  0  0  0  0
   16.4821    8.9126    3.0762 C   0  0  0  0  0  0  0  0  0  0  0  0
   16.5516    8.3709    4.3117 N   0  0  0  0  0  0  0  0  0  0  0  0
   14.7199    7.8016    8.0620 H   0  0  0  0  0  0  0  0  0  0  0  0
   20.0455    8.7930    8.2247 H   0  0  0  0  0  0  0  0  0  0  0  0
   18.9033   10.0013    8.7685 H   0  0  0  0  0  0  0  0  0  0  0  0
  1  2  1  6
  1  3  2  0
  1  7  1  0
  4  5  1  0
  4  6  1  0
  5 10  1  0
  6  7  1  6
  6  8  1  0
  8  9  1  1
  8 10  1  0
  9 22  1  0
 10 21  1  6
 11 12  1  0
 11 17  1  0
 12 13  1  0
 12 14  2  0
 13 23  1  0
 13 24  1  0
 14 15  1  0
 15 16  2  0
 15 21  1  0
 16 17  1  0
 16 19  1  0
 17 18  2  0
 19 20  2  0
 20 21  1  0
M  CHG  1   2  -1
M  END
>  <CHROM.0>  (55) 
-60.32852273

>  <CHROM.1>  (55) 
175.17387242,176.82800510,-87.91087705,-173.11570345,-92.58186146,15.98846808
9.21294317,5.05984014,3.00503245,0.22020806,2.55024044

>  <Name>  (55) 
7lng_h

>  <RI>  (55) 
8.5107e+06

>  <Rbt.Current_Directory>  (55) 
/home/jta30/NA_complexes/7lng

>  <Rbt.Executable>  (55) 
rbdock ($Id: //depot/dev/client3/rdock/2013.1/src/exe/rbdock.cxx#4 $)

>  <Rbt.Library>  (55) 
libRbt.so (2013.1, Build901 2013/11/27)

>  <Rbt.Parameter_File>  (55) 
/software/dev_tools/swtree/cs400_centos7.2_pe2016-08/rdock/2013.1/centos7.2_conda/build/data/scripts/dock.prm

>  <Rbt.Receptor>  (55) 
7lng.prm

>  <SCORE>  (55) 
-18.7523

>  <SCORE.INTER>  (55) 
-15.1401

>  <SCORE.INTER.CONST>  (55) 
1

>  <SCORE.INTER.POLAR>  (55) 
-4.13914

>  <SCORE.INTER.REPUL>  (55) 
0.0398184

>  <SCORE.INTER.ROT>  (55) 
4

>  <SCORE.INTER.VDW>  (55) 
-10.6661

>  <SCORE.INTER.norm>  (55) 
-0.720956

>  <SCORE.INTRA>  (55) 
-3.58969

>  <SCORE.INTRA.DIHEDRAL>  (55) 
-5.1838

>  <SCORE.INTRA.DIHEDRAL.0>  (55) 
10.6104

>  <SCORE.INTRA.POLAR>  (55) 
0

>  <SCORE.INTRA.POLAR.0>  (55) 
0

>  <SCORE.INTRA.REPUL>  (55) 
0

>  <SCORE.INTRA.REPUL.0>  (55) 
0

>  <SCORE.INTRA.VDW>  (55) 
-0.997785

>  <SCORE.INTRA.VDW.0>  (55) 
-1.96818

>  <SCORE.INTRA.norm>  (55) 
-0.170937

>  <SCORE.RESTR>  (55) 
0

>  <SCORE.RESTR.CAVITY>  (55) 
0

>  <SCORE.RESTR.norm>  (55) 
0

>  <SCORE.SYSTEM>  (55) 
-0.0225438

>  <SCORE.SYSTEM.CONST>  (55) 
0

>  <SCORE.SYSTEM.DIHEDRAL>  (55) 
0.270204

>  <SCORE.SYSTEM.VDW>  (55) 
-0.157646

>  <SCORE.SYSTEM.norm>  (55) 
-0.00107351

>  <SCORE.heavy>  (55) 
21

>  <SCORE.norm>  (55) 
-0.892967

>  <Predicted_Rank>  (55) 
55.0

$$$$
7lng_h
     RDKit          3D

 24 26  0  0  0  0  0  0  0  0999 V2000
   13.6016   11.1373    5.2480 P   0  0  1  0  0  0  0  0  0  0  0  0
   14.7768   11.2704    6.1429 O   0  0  0  0  0  0  0  0  0  0  0  0
   13.4718   11.9691    4.0245 O   0  0  0  0  0  0  0  0  0  0  0  0
   13.2126    7.1966    4.7827 C   0  0  0  0  0  0  0  0  0  0  0  0
   14.4628    7.0668    4.0951 O   0  0  0  0  0  0  0  0  0  0  0  0
   13.4869    8.4468    5.6100 C   0  0  2  0  0  0  0  0  0  0  0  0
   13.4847    9.6089    4.7230 O   0  0  0  0  0  0  0  0  0  0  0  0
   14.8789    8.2629    6.1272 C   0  0  1  0  0  0  0  0  0  0  0  0
   14.9643    7.3824    7.2874 O   0  0  0  0  0  0  0  0  0  0  0  0
   15.5371    7.6358    4.9062 C   0  0  2  0  0  0  0  0  0  0  0  0
   19.4163   10.7107    5.9771 N   0  0  0  0  0  0  0  0  0  0  0  0
   18.7762    9.7182    6.7639 C   0  0  0  0  0  0  0  0  0  0  0  0
   19.1777    9.4717    8.0196 N   0  0  0  0  0  0  0  0  0  0  0  0
   17.7505    9.0251    6.2210 N   0  0  0  0  0  0  0  0  0  0  0  0
   17.3492    9.2790    4.9603 C   0  0  0  0  0  0  0  0  0  0  0  0
   17.9435   10.2100    4.1784 C   0  0  0  0  0  0  0  0  0  0  0  0
   18.9630   10.9386    4.6495 C   0  0  0  0  0  0  0  0  0  0  0  0
   19.5182   11.7984    3.9513 O   0  0  0  0  0  0  0  0  0  0  0  0
   17.3159   10.2194    2.9995 N   0  0  0  0  0  0  0  0  0  0  0  0
   16.3543    9.3030    3.0411 C   0  0  0  0  0  0  0  0  0  0  0  0
   16.3809    8.7078    4.2534 N   0  0  0  0  0  0  0  0  0  0  0  0
   14.6955    7.8624    8.0743 H   0  0  0  0  0  0  0  0  0  0  0  0
   19.9286    8.8184    8.1908 H   0  0  0  0  0  0  0  0  0  0  0  0
   18.7290    9.9398    8.7939 H   0  0  0  0  0  0  0  0  0  0  0  0
  1  2  1  6
  1  3  2  0
  1  7  1  0
  4  5  1  0
  4  6  1  0
  5 10  1  0
  6  7  1  6
  6  8  1  0
  8  9  1  1
  8 10  1  0
  9 22  1  0
 10 21  1  6
 11 12  1  0
 11 17  1  0
 12 13  1  0
 12 14  2  0
 13 23  1  0
 13 24  1  0
 14 15  1  0
 15 16  2  0
 15 21  1  0
 16 17  1  0
 16 19  1  0
 17 18  2  0
 19 20  2  0
 20 21  1  0
M  CHG  1   2  -1
M  END
>  <CHROM.0>  (56) 
-178.03537037

>  <CHROM.1>  (56) 
52.02076040,174.03802364,-78.42040270,178.38838395,-86.50820257,16.02207176
9.59022384,5.18349553,2.96290324,0.19727940,2.60697592

>  <Name>  (56) 
7lng_h

>  <RI>  (56) 
8.5107e+06

>  <Rbt.Current_Directory>  (56) 
/home/jta30/NA_complexes/7lng

>  <Rbt.Executable>  (56) 
rbdock ($Id: //depot/dev/client3/rdock/2013.1/src/exe/rbdock.cxx#4 $)

>  <Rbt.Library>  (56) 
libRbt.so (2013.1, Build901 2013/11/27)

>  <Rbt.Parameter_File>  (56) 
/software/dev_tools/swtree/cs400_centos7.2_pe2016-08/rdock/2013.1/centos7.2_conda/build/data/scripts/dock.prm

>  <Rbt.Receptor>  (56) 
7lng.prm

>  <SCORE>  (56) 
-19.8999

>  <SCORE.INTER>  (56) 
-15.284

>  <SCORE.INTER.CONST>  (56) 
1

>  <SCORE.INTER.POLAR>  (56) 
-3.96725

>  <SCORE.INTER.REPUL>  (56) 
0.0620142

>  <SCORE.INTER.ROT>  (56) 
4

>  <SCORE.INTER.VDW>  (56) 
-11.5054

>  <SCORE.INTER.norm>  (56) 
-0.72781

>  <SCORE.INTRA>  (56) 
-4.57078

>  <SCORE.INTRA.DIHEDRAL>  (56) 
-6.58884

>  <SCORE.INTRA.DIHEDRAL.0>  (56) 
10.6104

>  <SCORE.INTRA.POLAR>  (56) 
0

>  <SCORE.INTRA.POLAR.0>  (56) 
0

>  <SCORE.INTRA.REPUL>  (56) 
0

>  <SCORE.INTRA.REPUL.0>  (56) 
0

>  <SCORE.INTRA.VDW>  (56) 
-1.27637

>  <SCORE.INTRA.VDW.0>  (56) 
-1.96818

>  <SCORE.INTRA.norm>  (56) 
-0.217656

>  <SCORE.RESTR>  (56) 
0

>  <SCORE.RESTR.CAVITY>  (56) 
0

>  <SCORE.RESTR.norm>  (56) 
0

>  <SCORE.SYSTEM>  (56) 
-0.0450873

>  <SCORE.SYSTEM.CONST>  (56) 
0

>  <SCORE.SYSTEM.DIHEDRAL>  (56) 
0.287316

>  <SCORE.SYSTEM.VDW>  (56) 
-0.188745

>  <SCORE.SYSTEM.norm>  (56) 
-0.00214701

>  <SCORE.heavy>  (56) 
21

>  <SCORE.norm>  (56) 
-0.947613

>  <Predicted_Rank>  (56) 
56.0

$$$$
7lng_h
     RDKit          3D

 24 26  0  0  0  0  0  0  0  0999 V2000
   12.5046   10.1833    5.2926 P   0  0  1  0  0  0  0  0  0  0  0  0
   13.6302   10.8281    6.0116 O   0  0  0  0  0  0  0  0  0  0  0  0
   11.8137   10.8737    4.1739 O   0  0  0  0  0  0  0  0  0  0  0  0
   13.8968    6.5196    4.5500 C   0  0  0  0  0  0  0  0  0  0  0  0
   15.1264    7.0692    4.0611 O   0  0  0  0  0  0  0  0  0  0  0  0
   13.4484    7.6421    5.4782 C   0  0  2  0  0  0  0  0  0  0  0  0
   12.9930    8.7704    4.6677 O   0  0  0  0  0  0  0  0  0  0  0  0
   14.6922    8.0614    6.1966 C   0  0  1  0  0  0  0  0  0  0  0  0
   15.0555    7.1851    7.3051 O   0  0  0  0  0  0  0  0  0  0  0  0
   15.7017    7.9661    5.0613 C   0  0  2  0  0  0  0  0  0  0  0  0
   18.4531   11.9847    6.4505 N   0  0  0  0  0  0  0  0  0  0  0  0
   18.3403   10.6942    7.0297 C   0  0  0  0  0  0  0  0  0  0  0  0
   19.0266   10.3752    8.1369 N   0  0  0  0  0  0  0  0  0  0  0  0
   17.5244    9.7909    6.4418 N   0  0  0  0  0  0  0  0  0  0  0  0
   16.8350   10.1177    5.3315 C   0  0  0  0  0  0  0  0  0  0  0  0
   16.9270   11.3346    4.7466 C   0  0  0  0  0  0  0  0  0  0  0  0
   17.7119   12.2817    5.2748 C   0  0  0  0  0  0  0  0  0  0  0  0
   17.8073   13.4032    4.7569 O   0  0  0  0  0  0  0  0  0  0  0  0
   16.1257   11.3399    3.6781 N   0  0  0  0  0  0  0  0  0  0  0  0
   15.5522   10.1441    3.5915 C   0  0  0  0  0  0  0  0  0  0  0  0
   16.0010    9.3781    4.6097 N   0  0  0  0  0  0  0  0  0  0  0  0
   15.8651    7.5024    7.7122 H   0  0  0  0  0  0  0  0  0  0  0  0
   18.5679   10.3873    9.0366 H   0  0  0  0  0  0  0  0  0  0  0  0
   20.0022   10.1226    8.0707 H   0  0  0  0  0  0  0  0  0  0  0  0
  1  2  1  6
  1  3  2  0
  1  7  1  0
  4  5  1  0
  4  6  1  0
  5 10  1  0
  6  7  1  6
  6  8  1  0
  8  9  1  1
  8 10  1  0
  9 22  1  0
 10 21  1  6
 11 12  1  0
 11 17  1  0
 12 13  1  0
 12 14  2  0
 13 23  1  0
 13 24  1  0
 14 15  1  0
 15 16  2  0
 15 21  1  0
 16 17  1  0
 16 19  1  0
 17 18  2  0
 19 20  2  0
 20 21  1  0
M  CHG  1   2  -1
M  END
>  <CHROM.0>  (57) 
-178.22643201

>  <CHROM.1>  (57) 
62.98523068,-176.94439019,179.19516250,-162.04565443,100.25176809,15.44358045
9.80080142,5.39288627,2.69518388,0.37773009,2.84387894

>  <Name>  (57) 
7lng_h

>  <RI>  (57) 
8.5107e+06

>  <Rbt.Current_Directory>  (57) 
/home/jta30/NA_complexes/7lng

>  <Rbt.Executable>  (57) 
rbdock ($Id: //depot/dev/client3/rdock/2013.1/src/exe/rbdock.cxx#4 $)

>  <Rbt.Library>  (57) 
libRbt.so (2013.1, Build901 2013/11/27)

>  <Rbt.Parameter_File>  (57) 
/software/dev_tools/swtree/cs400_centos7.2_pe2016-08/rdock/2013.1/centos7.2_conda/build/data/scripts/dock.prm

>  <Rbt.Receptor>  (57) 
7lng.prm

>  <SCORE>  (57) 
-17.7989

>  <SCORE.INTER>  (57) 
-12.0696

>  <SCORE.INTER.CONST>  (57) 
1

>  <SCORE.INTER.POLAR>  (57) 
-2.3891

>  <SCORE.INTER.REPUL>  (57) 
0

>  <SCORE.INTER.ROT>  (57) 
4

>  <SCORE.INTER.VDW>  (57) 
-13.3467

>  <SCORE.INTER.norm>  (57) 
-0.574743

>  <SCORE.INTRA>  (57) 
-5.68407

>  <SCORE.INTRA.DIHEDRAL>  (57) 
-8.17869

>  <SCORE.INTRA.DIHEDRAL.0>  (57) 
10.6104

>  <SCORE.INTRA.POLAR>  (57) 
0

>  <SCORE.INTRA.POLAR.0>  (57) 
0

>  <SCORE.INTRA.REPUL>  (57) 
0

>  <SCORE.INTRA.REPUL.0>  (57) 
0

>  <SCORE.INTRA.VDW>  (57) 
-1.59473

>  <SCORE.INTRA.VDW.0>  (57) 
-1.96818

>  <SCORE.INTRA.norm>  (57) 
-0.27067

>  <SCORE.RESTR>  (57) 
0

>  <SCORE.RESTR.CAVITY>  (57) 
0

>  <SCORE.RESTR.norm>  (57) 
0

>  <SCORE.SYSTEM>  (57) 
-0.0451843

>  <SCORE.SYSTEM.CONST>  (57) 
0

>  <SCORE.SYSTEM.DIHEDRAL>  (57) 
0.284061

>  <SCORE.SYSTEM.VDW>  (57) 
-0.187215

>  <SCORE.SYSTEM.norm>  (57) 
-0.00215163

>  <SCORE.heavy>  (57) 
21

>  <SCORE.norm>  (57) 
-0.847565

>  <Predicted_Rank>  (57) 
57.0

$$$$
7lng_h
     RDKit          3D

 24 26  0  0  0  0  0  0  0  0999 V2000
   15.1837   13.8212    8.2230 P   0  0  1  0  0  0  0  0  0  0  0  0
   14.0817   13.8180    9.2155 O   0  0  0  0  0  0  0  0  0  0  0  0
   16.4619   13.1155    8.4947 O   0  0  0  0  0  0  0  0  0  0  0  0
   15.7238   14.3811    4.9859 C   0  0  0  0  0  0  0  0  0  0  0  0
   16.1051   13.1165    4.4308 O   0  0  0  0  0  0  0  0  0  0  0  0
   14.3945   14.0049    5.6294 C   0  0  2  0  0  0  0  0  0  0  0  0
   14.6588   13.2005    6.8213 O   0  0  0  0  0  0  0  0  0  0  0  0
   13.7183   13.1295    4.6218 C   0  0  1  0  0  0  0  0  0  0  0  0
   13.0744   13.8663    3.5397 O   0  0  0  0  0  0  0  0  0  0  0  0
   14.9126   12.3328    4.1155 C   0  0  2  0  0  0  0  0  0  0  0  0
   17.3297    9.4385    7.4963 N   0  0  0  0  0  0  0  0  0  0  0  0
   17.5760   10.7701    7.0724 C   0  0  0  0  0  0  0  0  0  0  0  0
   18.5980   11.4752    7.5796 N   0  0  0  0  0  0  0  0  0  0  0  0
   16.7581   11.3147    6.1441 N   0  0  0  0  0  0  0  0  0  0  0  0
   15.7350   10.6009    5.6356 C   0  0  0  0  0  0  0  0  0  0  0  0
   15.4646    9.3333    6.0247 C   0  0  0  0  0  0  0  0  0  0  0  0
   16.2340    8.7267    6.9370 C   0  0  0  0  0  0  0  0  0  0  0  0
   16.0058    7.5656    7.3040 O   0  0  0  0  0  0  0  0  0  0  0  0
   14.4004    8.9096    5.3379 N   0  0  0  0  0  0  0  0  0  0  0  0
   14.0070    9.8989    4.5424 C   0  0  0  0  0  0  0  0  0  0  0  0
   14.8262   10.9557    4.7348 N   0  0  0  0  0  0  0  0  0  0  0  0
   12.6587   13.2480    2.9341 H   0  0  0  0  0  0  0  0  0  0  0  0
   19.5473   11.1602    7.4402 H   0  0  0  0  0  0  0  0  0  0  0  0
   18.4178   12.3212    8.1009 H   0  0  0  0  0  0  0  0  0  0  0  0
  1  2  1  1
  1  3  2  0
  1  7  1  0
  4  5  1  0
  4  6  1  0
  5 10  1  0
  6  7  1  1
  6  8  1  0
  8  9  1  6
  8 10  1  0
  9 22  1  0
 10 21  1  1
 11 12  1  0
 11 17  1  0
 12 13  1  0
 12 14  2  0
 13 23  1  0
 13 24  1  0
 14 15  1  0
 15 16  2  0
 15 21  1  0
 16 17  1  0
 16 19  1  0
 17 18  2  0
 19 20  2  0
 20 21  1  0
M  CHG  1   2  -1
M  END
>  <CHROM.0>  (58) 
-172.58523187

>  <CHROM.1>  (58) 
106.73439875,76.04454465,-179.74412744,7.76308008,62.38142244,15.46963087
11.80746224,6.28531712,-2.32241169,0.99470326,-2.68030698

>  <Name>  (58) 
7lng_h

>  <RI>  (58) 
8.5107e+06

>  <Rbt.Current_Directory>  (58) 
/home/jta30/NA_complexes/7lng

>  <Rbt.Executable>  (58) 
rbdock ($Id: //depot/dev/client3/rdock/2013.1/src/exe/rbdock.cxx#4 $)

>  <Rbt.Library>  (58) 
libRbt.so (2013.1, Build901 2013/11/27)

>  <Rbt.Parameter_File>  (58) 
/software/dev_tools/swtree/cs400_centos7.2_pe2016-08/rdock/2013.1/centos7.2_conda/build/data/scripts/dock.prm

>  <Rbt.Receptor>  (58) 
7lng.prm

>  <SCORE>  (58) 
-15.6906

>  <SCORE.INTER>  (58) 
-9.48368

>  <SCORE.INTER.CONST>  (58) 
1

>  <SCORE.INTER.POLAR>  (58) 
-1.97855

>  <SCORE.INTER.REPUL>  (58) 
0

>  <SCORE.INTER.ROT>  (58) 
4

>  <SCORE.INTER.VDW>  (58) 
-12.1566

>  <SCORE.INTER.norm>  (58) 
-0.451604

>  <SCORE.INTRA>  (58) 
-6.23982

>  <SCORE.INTRA.DIHEDRAL>  (58) 
-5.56672

>  <SCORE.INTRA.DIHEDRAL.0>  (58) 
10.6104

>  <SCORE.INTRA.POLAR>  (58) 
-0.613453

>  <SCORE.INTRA.POLAR.0>  (58) 
0

>  <SCORE.INTRA.REPUL>  (58) 
0

>  <SCORE.INTRA.REPUL.0>  (58) 
0

>  <SCORE.INTRA.VDW>  (58) 
-1.37073

>  <SCORE.INTRA.VDW.0>  (58) 
-1.96818

>  <SCORE.INTRA.norm>  (58) 
-0.297134

>  <SCORE.RESTR>  (58) 
0

>  <SCORE.RESTR.CAVITY>  (58) 
0

>  <SCORE.RESTR.norm>  (58) 
0

>  <SCORE.SYSTEM>  (58) 
0.0328642

>  <SCORE.SYSTEM.CONST>  (58) 
0

>  <SCORE.SYSTEM.DIHEDRAL>  (58) 
0.517557

>  <SCORE.SYSTEM.VDW>  (58) 
-0.225915

>  <SCORE.SYSTEM.norm>  (58) 
0.00156496

>  <SCORE.heavy>  (58) 
21

>  <SCORE.norm>  (58) 
-0.747173

>  <Predicted_Rank>  (58) 
58.0

$$$$
7lng_h
     RDKit          3D

 24 26  0  0  0  0  0  0  0  0999 V2000
   14.6639    6.9024    5.6456 P   0  0  1  0  0  0  0  0  0  0  0  0
   14.9603    6.6082    7.0687 O   0  0  0  0  0  0  0  0  0  0  0  0
   14.6114    5.8171    4.6333 O   0  0  0  0  0  0  0  0  0  0  0  0
   11.2445    8.6238    4.5274 C   0  0  0  0  0  0  0  0  0  0  0  0
   11.5810    9.8714    5.1462 O   0  0  0  0  0  0  0  0  0  0  0  0
   12.6387    8.0693    4.2599 C   0  0  2  0  0  0  0  0  0  0  0  0
   13.2293    7.6465    5.5287 O   0  0  0  0  0  0  0  0  0  0  0  0
   13.4223    9.2387    3.7524 C   0  0  1  0  0  0  0  0  0  0  0  0
   13.1869    9.5385    2.3441 O   0  0  0  0  0  0  0  0  0  0  0  0
   12.8746   10.3380    4.6518 C   0  0  2  0  0  0  0  0  0  0  0  0
   15.1710   14.2790    6.8530 N   0  0  0  0  0  0  0  0  0  0  0  0
   14.1412   14.2332    5.8777 C   0  0  0  0  0  0  0  0  0  0  0  0
   13.6170   15.3619    5.3779 N   0  0  0  0  0  0  0  0  0  0  0  0
   13.6990   13.0257    5.4609 N   0  0  0  0  0  0  0  0  0  0  0  0
   14.2314   11.8951    5.9639 C   0  0  0  0  0  0  0  0  0  0  0  0
   15.2062   11.9017    6.9025 C   0  0  0  0  0  0  0  0  0  0  0  0
   15.6972   13.0600    7.3601 C   0  0  0  0  0  0  0  0  0  0  0  0
   16.5923   13.0878    8.2163 O   0  0  0  0  0  0  0  0  0  0  0  0
   15.5146   10.6334    7.1853 N   0  0  0  0  0  0  0  0  0  0  0  0
   14.7383    9.8492    6.4445 C   0  0  0  0  0  0  0  0  0  0  0  0
   13.9307   10.6300    5.6943 N   0  0  0  0  0  0  0  0  0  0  0  0
   13.4507    8.7868    1.8082 H   0  0  0  0  0  0  0  0  0  0  0  0
   14.2004   16.1762    5.2493 H   0  0  0  0  0  0  0  0  0  0  0  0
   12.6385   15.3973    5.1301 H   0  0  0  0  0  0  0  0  0  0  0  0
  1  2  1  1
  1  3  2  0
  1  7  1  0
  4  5  1  0
  4  6  1  0
  5 10  1  0
  6  7  1  1
  6  8  1  0
  8  9  1  6
  8 10  1  0
  9 22  1  0
 10 21  1  1
 11 12  1  0
 11 17  1  0
 12 13  1  0
 12 14  2  0
 13 23  1  0
 13 24  1  0
 14 15  1  0
 15 16  2  0
 15 21  1  0
 16 17  1  0
 16 19  1  0
 17 18  2  0
 19 20  2  0
 20 21  1  0
M  CHG  1   2  -1
M  END
>  <CHROM.0>  (59) 
-62.76645774

>  <CHROM.1>  (59) 
-179.75037791,175.33500590,-61.37455711,-106.35158760,34.30997798,14.05796105
10.23043826,5.62528884,-1.79897931,-0.78672657,0.06914951

>  <Name>  (59) 
7lng_h

>  <RI>  (59) 
8.5107e+06

>  <Rbt.Current_Directory>  (59) 
/home/jta30/NA_complexes/7lng

>  <Rbt.Executable>  (59) 
rbdock ($Id: //depot/dev/client3/rdock/2013.1/src/exe/rbdock.cxx#4 $)

>  <Rbt.Library>  (59) 
libRbt.so (2013.1, Build901 2013/11/27)

>  <Rbt.Parameter_File>  (59) 
/software/dev_tools/swtree/cs400_centos7.2_pe2016-08/rdock/2013.1/centos7.2_conda/build/data/scripts/dock.prm

>  <Rbt.Receptor>  (59) 
7lng.prm

>  <SCORE>  (59) 
-16.4489

>  <SCORE.INTER>  (59) 
-12.1621

>  <SCORE.INTER.CONST>  (59) 
1

>  <SCORE.INTER.POLAR>  (59) 
-1.74248

>  <SCORE.INTER.REPUL>  (59) 
0

>  <SCORE.INTER.ROT>  (59) 
4

>  <SCORE.INTER.VDW>  (59) 
-15.6377

>  <SCORE.INTER.norm>  (59) 
-0.579147

>  <SCORE.INTRA>  (59) 
-4.26519

>  <SCORE.INTRA.DIHEDRAL>  (59) 
-8.01284

>  <SCORE.INTRA.DIHEDRAL.0>  (59) 
10.6104

>  <SCORE.INTRA.POLAR>  (59) 
0

>  <SCORE.INTRA.POLAR.0>  (59) 
0

>  <SCORE.INTRA.REPUL>  (59) 
0

>  <SCORE.INTRA.REPUL.0>  (59) 
0

>  <SCORE.INTRA.VDW>  (59) 
-0.258775

>  <SCORE.INTRA.VDW.0>  (59) 
-1.96818

>  <SCORE.INTRA.norm>  (59) 
-0.203104

>  <SCORE.RESTR>  (59) 
0

>  <SCORE.RESTR.CAVITY>  (59) 
0

>  <SCORE.RESTR.norm>  (59) 
0

>  <SCORE.SYSTEM>  (59) 
-0.0215902

>  <SCORE.SYSTEM.CONST>  (59) 
0

>  <SCORE.SYSTEM.DIHEDRAL>  (59) 
0.304588

>  <SCORE.SYSTEM.VDW>  (59) 
-0.173884

>  <SCORE.SYSTEM.norm>  (59) 
-0.0010281

>  <SCORE.heavy>  (59) 
21

>  <SCORE.norm>  (59) 
-0.783279

>  <Predicted_Rank>  (59) 
59.0

$$$$
7lng_h
     RDKit          3D

 24 26  0  0  0  0  0  0  0  0999 V2000
   15.2104    7.9857    6.5151 P   0  0  1  0  0  0  0  0  0  0  0  0
   15.0692    6.8681    7.4797 O   0  0  0  0  0  0  0  0  0  0  0  0
   14.0412    8.8146    6.1257 O   0  0  0  0  0  0  0  0  0  0  0  0
   18.3401    8.4322    5.8911 C   0  0  0  0  0  0  0  0  0  0  0  0
   18.3897    9.7547    5.3423 O   0  0  0  0  0  0  0  0  0  0  0  0
   17.7189    8.7264    7.2513 C   0  0  2  0  0  0  0  0  0  0  0  0
   16.3047    9.0469    7.0643 O   0  0  0  0  0  0  0  0  0  0  0  0
   18.4139    9.9630    7.7275 C   0  0  1  0  0  0  0  0  0  0  0  0
   19.7336    9.7139    8.2976 O   0  0  0  0  0  0  0  0  0  0  0  0
   18.5123   10.7349    6.4192 C   0  0  2  0  0  0  0  0  0  0  0  0
   13.9707   11.8337    4.4657 N   0  0  0  0  0  0  0  0  0  0  0  0
   14.7965   10.6910    4.3049 C   0  0  0  0  0  0  0  0  0  0  0  0
   14.4145    9.6714    3.5219 N   0  0  0  0  0  0  0  0  0  0  0  0
   15.9794   10.6512    4.9580 N   0  0  0  0  0  0  0  0  0  0  0  0
   16.3597   11.6796    5.7407 C   0  0  0  0  0  0  0  0  0  0  0  0
   15.5927   12.7792    5.9253 C   0  0  0  0  0  0  0  0  0  0  0  0
   14.4104   12.8912    5.3074 C   0  0  0  0  0  0  0  0  0  0  0  0
   13.6950   13.8911    5.4601 O   0  0  0  0  0  0  0  0  0  0  0  0
   16.2475   13.6054    6.7453 N   0  0  0  0  0  0  0  0  0  0  0  0
   17.3976   13.0269    7.0753 C   0  0  0  0  0  0  0  0  0  0  0  0
   17.4643   11.8245    6.4633 N   0  0  0  0  0  0  0  0  0  0  0  0
   20.1597    8.9992    7.8186 H   0  0  0  0  0  0  0  0  0  0  0  0
   14.5603    9.7188    2.5237 H   0  0  0  0  0  0  0  0  0  0  0  0
   13.9810    8.8559    3.9309 H   0  0  0  0  0  0  0  0  0  0  0  0
  1  2  1  1
  1  3  2  0
  1  7  1  0
  4  5  1  0
  4  6  1  0
  5 10  1  0
  6  7  1  6
  6  8  1  0
  8  9  1  6
  8 10  1  0
  9 22  1  0
 10 21  1  6
 11 12  1  0
 11 17  1  0
 12 13  1  0
 12 14  2  0
 13 23  1  0
 13 24  1  0
 14 15  1  0
 15 16  2  0
 15 21  1  0
 16 17  1  0
 16 19  1  0
 17 18  2  0
 19 20  2  0
 20 21  1  0
M  CHG  1   2  -1
M  END
>  <CHROM.0>  (60) 
-178.64121564

>  <CHROM.1>  (60) 
64.07765579,65.10089342,35.48474060,14.44077493,82.40153851,16.22685425,10.36497106
6.13276980,0.91964030,0.43673994,3.01585731

>  <Name>  (60) 
7lng_h

>  <RI>  (60) 
8.5107e+06

>  <Rbt.Current_Directory>  (60) 
/home/jta30/NA_complexes/7lng

>  <Rbt.Executable>  (60) 
rbdock ($Id: //depot/dev/client3/rdock/2013.1/src/exe/rbdock.cxx#4 $)

>  <Rbt.Library>  (60) 
libRbt.so (2013.1, Build901 2013/11/27)

>  <Rbt.Parameter_File>  (60) 
/software/dev_tools/swtree/cs400_centos7.2_pe2016-08/rdock/2013.1/centos7.2_conda/build/data/scripts/dock.prm

>  <Rbt.Receptor>  (60) 
7lng.prm

>  <SCORE>  (60) 
-18.3529

>  <SCORE.INTER>  (60) 
-13.8684

>  <SCORE.INTER.CONST>  (60) 
1

>  <SCORE.INTER.POLAR>  (60) 
-2.59

>  <SCORE.INTER.REPUL>  (60) 
0

>  <SCORE.INTER.ROT>  (60) 
4

>  <SCORE.INTER.VDW>  (60) 
-14.4624

>  <SCORE.INTER.norm>  (60) 
-0.660399

>  <SCORE.INTRA>  (60) 
-4.43979

>  <SCORE.INTRA.DIHEDRAL>  (60) 
-5.49794

>  <SCORE.INTRA.DIHEDRAL.0>  (60) 
10.6104

>  <SCORE.INTRA.POLAR>  (60) 
-0.207286

>  <SCORE.INTRA.POLAR.0>  (60) 
0

>  <SCORE.INTRA.REPUL>  (60) 
0

>  <SCORE.INTRA.REPUL.0>  (60) 
0

>  <SCORE.INTRA.VDW>  (60) 
-0.986044

>  <SCORE.INTRA.VDW.0>  (60) 
-1.96818

>  <SCORE.INTRA.norm>  (60) 
-0.211418

>  <SCORE.RESTR>  (60) 
0

>  <SCORE.RESTR.CAVITY>  (60) 
0

>  <SCORE.RESTR.norm>  (60) 
0

>  <SCORE.SYSTEM>  (60) 
-0.044766

>  <SCORE.SYSTEM.CONST>  (60) 
0

>  <SCORE.SYSTEM.DIHEDRAL>  (60) 
0.278136

>  <SCORE.SYSTEM.VDW>  (60) 
-0.183834

>  <SCORE.SYSTEM.norm>  (60) 
-0.00213171

>  <SCORE.heavy>  (60) 
21

>  <SCORE.norm>  (60) 
-0.873949

>  <Predicted_Rank>  (60) 
60.0

$$$$
7lng_h
     RDKit          3D

 24 26  0  0  0  0  0  0  0  0999 V2000
   13.2700   12.6614    2.9148 P   0  0  1  0  0  0  0  0  0  0  0  0
   12.0136   11.8750    2.8636 O   0  0  0  0  0  0  0  0  0  0  0  0
   13.5821   13.6762    1.8764 O   0  0  0  0  0  0  0  0  0  0  0  0
   14.2703   14.7729    6.1489 C   0  0  0  0  0  0  0  0  0  0  0  0
   14.1859   13.6110    6.9829 O   0  0  0  0  0  0  0  0  0  0  0  0
   14.5681   14.1202    4.8043 C   0  0  2  0  0  0  0  0  0  0  0  0
   13.3539   13.4668    4.3183 O   0  0  0  0  0  0  0  0  0  0  0  0
   15.5739   13.0561    5.1124 C   0  0  1  0  0  0  0  0  0  0  0  0
   16.9361   13.5580    5.2579 O   0  0  0  0  0  0  0  0  0  0  0  0
   15.0266   12.5468    6.4384 C   0  0  2  0  0  0  0  0  0  0  0  0
   15.9321    7.5750    6.7725 N   0  0  0  0  0  0  0  0  0  0  0  0
   16.7347    8.6891    7.1309 C   0  0  0  0  0  0  0  0  0  0  0  0
   17.9599    8.5157    7.6480 N   0  0  0  0  0  0  0  0  0  0  0  0
   16.2384    9.9317    6.9391 N   0  0  0  0  0  0  0  0  0  0  0  0
   15.0083   10.1002    6.4163 C   0  0  0  0  0  0  0  0  0  0  0  0
   14.2120    9.0610    6.0737 C   0  0  0  0  0  0  0  0  0  0  0  0
   14.6377    7.8016    6.2310 C   0  0  0  0  0  0  0  0  0  0  0  0
   13.9257    6.8365    5.9201 O   0  0  0  0  0  0  0  0  0  0  0  0
   13.0718    9.5585    5.5877 N   0  0  0  0  0  0  0  0  0  0  0  0
   13.1507   10.8842    5.6364 C   0  0  0  0  0  0  0  0  0  0  0  0
   14.3474   11.2238    6.1630 N   0  0  0  0  0  0  0  0  0  0  0  0
   17.5277   12.8271    5.4518 H   0  0  0  0  0  0  0  0  0  0  0  0
   18.6056    9.2911    7.6884 H   0  0  0  0  0  0  0  0  0  0  0  0
   18.2366    7.6092    7.9973 H   0  0  0  0  0  0  0  0  0  0  0  0
  1  2  1  6
  1  3  2  0
  1  7  1  0
  4  5  1  0
  4  6  1  0
  5 10  1  0
  6  7  1  1
  6  8  1  0
  8  9  1  1
  8 10  1  0
  9 22  1  0
 10 21  1  6
 11 12  1  0
 11 17  1  0
 12 13  1  0
 12 14  2  0
 13 23  1  0
 13 24  1  0
 14 15  1  0
 15 16  2  0
 15 21  1  0
 16 17  1  0
 16 19  1  0
 17 18  2  0
 19 20  2  0
 20 21  1  0
M  CHG  1   2  -1
M  END
>  <CHROM.0>  (61) 
-177.44929118

>  <CHROM.1>  (61) 
167.42028527,179.98032781,-179.87292728,-141.80696514,164.99040490,14.59254869
11.26992372,5.39083836,2.00921345,-0.73081773,-0.20461588

>  <Name>  (61) 
7lng_h

>  <RI>  (61) 
8.5107e+06

>  <Rbt.Current_Directory>  (61) 
/home/jta30/NA_complexes/7lng

>  <Rbt.Executable>  (61) 
rbdock ($Id: //depot/dev/client3/rdock/2013.1/src/exe/rbdock.cxx#4 $)

>  <Rbt.Library>  (61) 
libRbt.so (2013.1, Build901 2013/11/27)

>  <Rbt.Parameter_File>  (61) 
/software/dev_tools/swtree/cs400_centos7.2_pe2016-08/rdock/2013.1/centos7.2_conda/build/data/scripts/dock.prm

>  <Rbt.Receptor>  (61) 
7lng.prm

>  <SCORE>  (61) 
-16.0615

>  <SCORE.INTER>  (61) 
-10.9941

>  <SCORE.INTER.CONST>  (61) 
1

>  <SCORE.INTER.POLAR>  (61) 
-1.0198

>  <SCORE.INTER.REPUL>  (61) 
0.00792445

>  <SCORE.INTER.ROT>  (61) 
4

>  <SCORE.INTER.VDW>  (61) 
-16.9664

>  <SCORE.INTER.norm>  (61) 
-0.523527

>  <SCORE.INTRA>  (61) 
-5.02376

>  <SCORE.INTRA.DIHEDRAL>  (61) 
-8.25688

>  <SCORE.INTRA.DIHEDRAL.0>  (61) 
10.6104

>  <SCORE.INTRA.POLAR>  (61) 
0

>  <SCORE.INTRA.POLAR.0>  (61) 
0

>  <SCORE.INTRA.REPUL>  (61) 
0

>  <SCORE.INTRA.REPUL.0>  (61) 
0

>  <SCORE.INTRA.VDW>  (61) 
-0.895315

>  <SCORE.INTRA.VDW.0>  (61) 
-1.96818

>  <SCORE.INTRA.norm>  (61) 
-0.239226

>  <SCORE.RESTR>  (61) 
0

>  <SCORE.RESTR.CAVITY>  (61) 
0

>  <SCORE.RESTR.norm>  (61) 
0

>  <SCORE.SYSTEM>  (61) 
-0.0436541

>  <SCORE.SYSTEM.CONST>  (61) 
0

>  <SCORE.SYSTEM.DIHEDRAL>  (61) 
0.299368

>  <SCORE.SYSTEM.VDW>  (61) 
-0.193338

>  <SCORE.SYSTEM.norm>  (61) 
-0.00207877

>  <SCORE.heavy>  (61) 
21

>  <SCORE.norm>  (61) 
-0.764832

>  <Predicted_Rank>  (61) 
61.0

$$$$
7lng_h
     RDKit          3D

 24 26  0  0  0  0  0  0  0  0999 V2000
   14.6020    6.0924    5.2097 P   0  0  1  0  0  0  0  0  0  0  0  0
   15.1899    4.9289    4.5025 O   0  0  0  0  0  0  0  0  0  0  0  0
   14.8385    6.3075    6.6600 O   0  0  0  0  0  0  0  0  0  0  0  0
   16.5080    9.3938    4.0864 C   0  0  0  0  0  0  0  0  0  0  0  0
   15.3301   10.1692    3.8332 O   0  0  0  0  0  0  0  0  0  0  0  0
   15.9783    8.4344    5.1455 C   0  0  2  0  0  0  0  0  0  0  0  0
   15.0914    7.4659    4.5030 O   0  0  0  0  0  0  0  0  0  0  0  0
   15.1499    9.2888    6.0526 C   0  0  1  0  0  0  0  0  0  0  0  0
   15.9319   10.0493    7.0215 O   0  0  0  0  0  0  0  0  0  0  0  0
   14.4923   10.2049    5.0301 C   0  0  2  0  0  0  0  0  0  0  0  0
   10.1318   11.7171    2.9446 N   0  0  0  0  0  0  0  0  0  0  0  0
   11.4152   12.3225    2.9500 C   0  0  0  0  0  0  0  0  0  0  0  0
   11.6238   13.4971    2.3372 N   0  0  0  0  0  0  0  0  0  0  0  0
   12.4255   11.6902    3.5877 N   0  0  0  0  0  0  0  0  0  0  0  0
   12.2096   10.5121    4.2044 C   0  0  0  0  0  0  0  0  0  0  0  0
   11.0021    9.9013    4.2098 C   0  0  0  0  0  0  0  0  0  0  0  0
    9.9532   10.4700    3.6025 C   0  0  0  0  0  0  0  0  0  0  0  0
    8.8386    9.9291    3.5991 O   0  0  0  0  0  0  0  0  0  0  0  0
   11.1184    8.7644    4.9009 N   0  0  0  0  0  0  0  0  0  0  0  0
   12.3787    8.6621    5.3101 C   0  0  0  0  0  0  0  0  0  0  0  0
   13.0624    9.7399    4.8677 N   0  0  0  0  0  0  0  0  0  0  0  0
   16.4581    9.4465    7.5521 H   0  0  0  0  0  0  0  0  0  0  0  0
   11.5802   14.3570    2.8650 H   0  0  0  0  0  0  0  0  0  0  0  0
   11.8247   13.5214    1.3477 H   0  0  0  0  0  0  0  0  0  0  0  0
  1  2  1  6
  1  3  2  0
  1  7  1  0
  4  5  1  0
  4  6  1  0
  5 10  1  0
  6  7  1  6
  6  8  1  0
  8  9  1  1
  8 10  1  0
  9 22  1  0
 10 21  1  6
 11 12  1  0
 11 17  1  0
 12 13  1  0
 12 14  2  0
 13 23  1  0
 13 24  1  0
 14 15  1  0
 15 16  2  0
 15 21  1  0
 16 17  1  0
 16 19  1  0
 17 18  2  0
 19 20  2  0
 20 21  1  0
M  CHG  1   2  -1
M  END
>  <CHROM.0>  (62) 
-60.05468812

>  <CHROM.1>  (62) 
-112.66881360,165.45359962,-57.66075275,-72.02471438,95.38643611,13.35716646
9.26771075,4.56086771,0.79660841,0.22367218,2.90960073

>  <Name>  (62) 
7lng_h

>  <RI>  (62) 
8.5107e+06

>  <Rbt.Current_Directory>  (62) 
/home/jta30/NA_complexes/7lng

>  <Rbt.Executable>  (62) 
rbdock ($Id: //depot/dev/client3/rdock/2013.1/src/exe/rbdock.cxx#4 $)

>  <Rbt.Library>  (62) 
libRbt.so (2013.1, Build901 2013/11/27)

>  <Rbt.Parameter_File>  (62) 
/software/dev_tools/swtree/cs400_centos7.2_pe2016-08/rdock/2013.1/centos7.2_conda/build/data/scripts/dock.prm

>  <Rbt.Receptor>  (62) 
7lng.prm

>  <SCORE>  (62) 
-13.59

>  <SCORE.INTER>  (62) 
-10.3167

>  <SCORE.INTER.CONST>  (62) 
1

>  <SCORE.INTER.POLAR>  (62) 
-2.06447

>  <SCORE.INTER.REPUL>  (62) 
0.0171179

>  <SCORE.INTER.ROT>  (62) 
4

>  <SCORE.INTER.VDW>  (62) 
-12.7831

>  <SCORE.INTER.norm>  (62) 
-0.491273

>  <SCORE.INTRA>  (62) 
-3.25243

>  <SCORE.INTRA.DIHEDRAL>  (62) 
-5.84237

>  <SCORE.INTRA.DIHEDRAL.0>  (62) 
10.6104

>  <SCORE.INTRA.POLAR>  (62) 
0

>  <SCORE.INTRA.POLAR.0>  (62) 
0

>  <SCORE.INTRA.REPUL>  (62) 
0

>  <SCORE.INTRA.REPUL.0>  (62) 
0

>  <SCORE.INTRA.VDW>  (62) 
-0.33125

>  <SCORE.INTRA.VDW.0>  (62) 
-1.96818

>  <SCORE.INTRA.norm>  (62) 
-0.154878

>  <SCORE.RESTR>  (62) 
0

>  <SCORE.RESTR.CAVITY>  (62) 
0

>  <SCORE.RESTR.norm>  (62) 
0

>  <SCORE.SYSTEM>  (62) 
-0.0208366

>  <SCORE.SYSTEM.CONST>  (62) 
0

>  <SCORE.SYSTEM.DIHEDRAL>  (62) 
0.269725

>  <SCORE.SYSTEM.VDW>  (62) 
-0.155699

>  <SCORE.SYSTEM.norm>  (62) 
-0.00099222

>  <SCORE.heavy>  (62) 
21

>  <SCORE.norm>  (62) 
-0.647143

>  <Predicted_Rank>  (62) 
62.0

$$$$
7lng_h
     RDKit          3D

 24 26  0  0  0  0  0  0  0  0999 V2000
   12.5625    9.7458    4.7806 P   0  0  1  0  0  0  0  0  0  0  0  0
   11.4374    8.8174    5.0486 O   0  0  0  0  0  0  0  0  0  0  0  0
   12.3687   11.2176    4.8232 O   0  0  0  0  0  0  0  0  0  0  0  0
   14.8444    7.6254    4.6461 C   0  0  0  0  0  0  0  0  0  0  0  0
   15.9774    8.4727    4.4201 O   0  0  0  0  0  0  0  0  0  0  0  0
   14.3849    8.1439    6.0036 C   0  0  2  0  0  0  0  0  0  0  0  0
   13.7692    9.4575    5.8227 O   0  0  0  0  0  0  0  0  0  0  0  0
   15.6462    8.3286    6.7871 C   0  0  1  0  0  0  0  0  0  0  0  0
   16.1749    7.0916    7.3518 O   0  0  0  0  0  0  0  0  0  0  0  0
   16.5593    8.8753    5.6987 C   0  0  2  0  0  0  0  0  0  0  0  0
   19.6471   12.1598    8.0069 N   0  0  0  0  0  0  0  0  0  0  0  0
   19.7259   10.7490    7.8763 C   0  0  0  0  0  0  0  0  0  0  0  0
   20.7417   10.0638    8.4214 N   0  0  0  0  0  0  0  0  0  0  0  0
   18.7533   10.1080    7.1904 N   0  0  0  0  0  0  0  0  0  0  0  0
   17.7334   10.8009    6.6477 C   0  0  0  0  0  0  0  0  0  0  0  0
   17.6326   12.1471    6.7432 C   0  0  0  0  0  0  0  0  0  0  0  0
   18.5563   12.8492    7.4111 C   0  0  0  0  0  0  0  0  0  0  0  0
   18.4804   14.0815    7.5134 O   0  0  0  0  0  0  0  0  0  0  0  0
   16.5190   12.5230    6.1089 N   0  0  0  0  0  0  0  0  0  0  0  0
   15.9409   11.4321    5.6168 C   0  0  0  0  0  0  0  0  0  0  0  0
   16.7000   10.3620    5.9385 N   0  0  0  0  0  0  0  0  0  0  0  0
   17.0604    7.2463    7.6892 H   0  0  0  0  0  0  0  0  0  0  0  0
   21.3773   10.5234    9.0577 H   0  0  0  0  0  0  0  0  0  0  0  0
   20.8709    9.0879    8.1956 H   0  0  0  0  0  0  0  0  0  0  0  0
  1  2  1  1
  1  3  2  0
  1  7  1  0
  4  5  1  0
  4  6  1  0
  5 10  1  0
  6  7  1  6
  6  8  1  0
  8  9  1  6
  8 10  1  0
  9 22  1  0
 10 21  1  6
 11 12  1  0
 11 17  1  0
 12 13  1  0
 12 14  2  0
 13 23  1  0
 13 24  1  0
 14 15  1  0
 15 16  2  0
 15 21  1  0
 16 17  1  0
 16 19  1  0
 17 18  2  0
 19 20  2  0
 20 21  1  0
M  CHG  1   2  -1
M  END
>  <CHROM.0>  (63) 
-178.50882417

>  <CHROM.1>  (63) 
54.81697492,53.76249798,168.99870789,-146.39508011,10.12539292,16.10860167
10.16026691,6.22747702,2.77874488,0.39604375,3.13791495

>  <Name>  (63) 
7lng_h

>  <RI>  (63) 
8.5107e+06

>  <Rbt.Current_Directory>  (63) 
/home/jta30/NA_complexes/7lng

>  <Rbt.Executable>  (63) 
rbdock ($Id: //depot/dev/client3/rdock/2013.1/src/exe/rbdock.cxx#4 $)

>  <Rbt.Library>  (63) 
libRbt.so (2013.1, Build901 2013/11/27)

>  <Rbt.Parameter_File>  (63) 
/software/dev_tools/swtree/cs400_centos7.2_pe2016-08/rdock/2013.1/centos7.2_conda/build/data/scripts/dock.prm

>  <Rbt.Receptor>  (63) 
7lng.prm

>  <SCORE>  (63) 
-16.8691

>  <SCORE.INTER>  (63) 
-12.8888

>  <SCORE.INTER.CONST>  (63) 
1

>  <SCORE.INTER.POLAR>  (63) 
-2.45977

>  <SCORE.INTER.REPUL>  (63) 
0.0324886

>  <SCORE.INTER.ROT>  (63) 
4

>  <SCORE.INTER.VDW>  (63) 
-14.088

>  <SCORE.INTER.norm>  (63) 
-0.613752

>  <SCORE.INTRA>  (63) 
-3.93533

>  <SCORE.INTRA.DIHEDRAL>  (63) 
-7.58231

>  <SCORE.INTRA.DIHEDRAL.0>  (63) 
10.6104

>  <SCORE.INTRA.POLAR>  (63) 
0

>  <SCORE.INTRA.POLAR.0>  (63) 
0

>  <SCORE.INTRA.REPUL>  (63) 
0

>  <SCORE.INTRA.REPUL.0>  (63) 
0

>  <SCORE.INTRA.VDW>  (63) 
-0.144176

>  <SCORE.INTRA.VDW.0>  (63) 
-1.96818

>  <SCORE.INTRA.norm>  (63) 
-0.187397

>  <SCORE.RESTR>  (63) 
0

>  <SCORE.RESTR.CAVITY>  (63) 
0

>  <SCORE.RESTR.norm>  (63) 
0

>  <SCORE.SYSTEM>  (63) 
-0.0449931

>  <SCORE.SYSTEM.CONST>  (63) 
0

>  <SCORE.SYSTEM.DIHEDRAL>  (63) 
0.279857

>  <SCORE.SYSTEM.VDW>  (63) 
-0.184922

>  <SCORE.SYSTEM.norm>  (63) 
-0.00214253

>  <SCORE.heavy>  (63) 
21

>  <SCORE.norm>  (63) 
-0.803292

>  <Predicted_Rank>  (63) 
63.0

$$$$
7lng_h
     RDKit          3D

 24 26  0  0  0  0  0  0  0  0999 V2000
   15.4925    8.1755    6.8107 P   0  0  1  0  0  0  0  0  0  0  0  0
   15.1870    6.8587    7.4209 O   0  0  0  0  0  0  0  0  0  0  0  0
   16.4227    8.2891    5.6586 O   0  0  0  0  0  0  0  0  0  0  0  0
   12.2567    9.3696    4.8301 C   0  0  0  0  0  0  0  0  0  0  0  0
   12.3749   10.7513    5.1900 O   0  0  0  0  0  0  0  0  0  0  0  0
   13.7187    8.9450    4.9016 C   0  0  2  0  0  0  0  0  0  0  0  0
   14.1212    8.8751    6.3054 O   0  0  0  0  0  0  0  0  0  0  0  0
   14.4725   10.0670    4.2600 C   0  0  1  0  0  0  0  0  0  0  0  0
   14.4530   10.0312    2.8016 O   0  0  0  0  0  0  0  0  0  0  0  0
   13.6882   11.2567    4.7954 C   0  0  2  0  0  0  0  0  0  0  0  0
   14.4437   15.7579    6.9905 N   0  0  0  0  0  0  0  0  0  0  0  0
   13.5488   15.3679    5.9605 C   0  0  0  0  0  0  0  0  0  0  0  0
   12.7219   16.2592    5.3944 N   0  0  0  0  0  0  0  0  0  0  0  0
   13.5475   14.0769    5.5598 N   0  0  0  0  0  0  0  0  0  0  0  0
   14.3826   13.1865    6.1296 C   0  0  0  0  0  0  0  0  0  0  0  0
   15.2406   13.5211    7.1213 C   0  0  0  0  0  0  0  0  0  0  0  0
   15.3011   14.7820    7.5671 C   0  0  0  0  0  0  0  0  0  0  0  0
   16.0822   15.1096    8.4713 O   0  0  0  0  0  0  0  0  0  0  0  0
   15.9227   12.4250    7.4633 N   0  0  0  0  0  0  0  0  0  0  0  0
   15.4903   11.4218    6.7063 C   0  0  0  0  0  0  0  0  0  0  0  0
   14.5241   11.8889    5.8858 N   0  0  0  0  0  0  0  0  0  0  0  0
   14.8558    9.2150    2.4958 H   0  0  0  0  0  0  0  0  0  0  0  0
   12.5356   16.2167    4.4027 H   0  0  0  0  0  0  0  0  0  0  0  0
   12.2853   16.9729    5.9602 H   0  0  0  0  0  0  0  0  0  0  0  0
  1  2  1  6
  1  3  2  0
  1  7  1  0
  4  5  1  0
  4  6  1  0
  5 10  1  0
  6  7  1  1
  6  8  1  0
  8  9  1  6
  8 10  1  0
  9 22  1  0
 10 21  1  1
 11 12  1  0
 11 17  1  0
 12 13  1  0
 12 14  2  0
 13 23  1  0
 13 24  1  0
 14 15  1  0
 15 16  2  0
 15 21  1  0
 16 17  1  0
 16 19  1  0
 17 18  2  0
 19 20  2  0
 20 21  1  0
M  CHG  1   2  -1
M  END
>  <CHROM.0>  (64) 
-177.55733278

>  <CHROM.1>  (64) 
-104.33592068,167.01165797,-60.54680328,-88.34737064,141.79052435,14.49803522
11.45190467,6.02689826,-1.46578729,-0.85541291,0.19912755

>  <Name>  (64) 
7lng_h

>  <RI>  (64) 
8.5107e+06

>  <Rbt.Current_Directory>  (64) 
/home/jta30/NA_complexes/7lng

>  <Rbt.Executable>  (64) 
rbdock ($Id: //depot/dev/client3/rdock/2013.1/src/exe/rbdock.cxx#4 $)

>  <Rbt.Library>  (64) 
libRbt.so (2013.1, Build901 2013/11/27)

>  <Rbt.Parameter_File>  (64) 
/software/dev_tools/swtree/cs400_centos7.2_pe2016-08/rdock/2013.1/centos7.2_conda/build/data/scripts/dock.prm

>  <Rbt.Receptor>  (64) 
7lng.prm

>  <SCORE>  (64) 
-15.972

>  <SCORE.INTER>  (64) 
-12.4544

>  <SCORE.INTER.CONST>  (64) 
1

>  <SCORE.INTER.POLAR>  (64) 
-1.79399

>  <SCORE.INTER.REPUL>  (64) 
0

>  <SCORE.INTER.ROT>  (64) 
4

>  <SCORE.INTER.VDW>  (64) 
-15.7548

>  <SCORE.INTER.norm>  (64) 
-0.593067

>  <SCORE.INTRA>  (64) 
-3.47352

>  <SCORE.INTRA.DIHEDRAL>  (64) 
-6.26928

>  <SCORE.INTRA.DIHEDRAL.0>  (64) 
10.6104

>  <SCORE.INTRA.POLAR>  (64) 
0

>  <SCORE.INTRA.POLAR.0>  (64) 
0

>  <SCORE.INTRA.REPUL>  (64) 
0

>  <SCORE.INTRA.REPUL.0>  (64) 
0

>  <SCORE.INTRA.VDW>  (64) 
-0.338884

>  <SCORE.INTRA.VDW.0>  (64) 
-1.96818

>  <SCORE.INTRA.norm>  (64) 
-0.165406

>  <SCORE.RESTR>  (64) 
0

>  <SCORE.RESTR.CAVITY>  (64) 
0

>  <SCORE.RESTR.norm>  (64) 
0

>  <SCORE.SYSTEM>  (64) 
-0.0440469

>  <SCORE.SYSTEM.CONST>  (64) 
0

>  <SCORE.SYSTEM.DIHEDRAL>  (64) 
0.296912

>  <SCORE.SYSTEM.VDW>  (64) 
-0.192503

>  <SCORE.SYSTEM.norm>  (64) 
-0.00209747

>  <SCORE.heavy>  (64) 
21

>  <SCORE.norm>  (64) 
-0.76057

>  <Predicted_Rank>  (64) 
64.0

$$$$
7lng_h
     RDKit          3D

 24 26  0  0  0  0  0  0  0  0999 V2000
   17.9959    6.5791    4.7248 P   0  0  1  0  0  0  0  0  0  0  0  0
   19.3189    5.9604    4.9823 O   0  0  0  0  0  0  0  0  0  0  0  0
   16.8205    6.2561    5.5732 O   0  0  0  0  0  0  0  0  0  0  0  0
   19.0460   10.3616    5.3801 C   0  0  0  0  0  0  0  0  0  0  0  0
   17.7191   10.8145    5.6745 O   0  0  0  0  0  0  0  0  0  0  0  0
   18.9298    8.8981    5.7893 C   0  0  2  0  0  0  0  0  0  0  0  0
   18.1244    8.1928    4.7937 O   0  0  0  0  0  0  0  0  0  0  0  0
   18.1613    8.9219    7.0729 C   0  0  1  0  0  0  0  0  0  0  0  0
   18.9710    9.2636    8.2375 O   0  0  0  0  0  0  0  0  0  0  0  0
   17.1515   10.0170    6.7597 C   0  0  2  0  0  0  0  0  0  0  0  0
   12.5653   11.0758    4.8900 N   0  0  0  0  0  0  0  0  0  0  0  0
   13.7161   11.8925    5.0392 C   0  0  0  0  0  0  0  0  0  0  0  0
   13.6994   13.1794    4.6619 N   0  0  0  0  0  0  0  0  0  0  0  0
   14.8320   11.3460    5.5714 N   0  0  0  0  0  0  0  0  0  0  0  0
   14.8423   10.0536    5.9516 C   0  0  0  0  0  0  0  0  0  0  0  0
   13.7671    9.2434    5.8138 C   0  0  0  0  0  0  0  0  0  0  0  0
   12.6253    9.7159    5.2987 C   0  0  0  0  0  0  0  0  0  0  0  0
   11.6286    8.9918    5.1675 O   0  0  0  0  0  0  0  0  0  0  0  0
   14.0972    8.0373    6.2827 N   0  0  0  0  0  0  0  0  0  0  0  0
   15.3593    8.0908    6.6957 C   0  0  0  0  0  0  0  0  0  0  0  0
   15.8292    9.3386    6.4790 N   0  0  0  0  0  0  0  0  0  0  0  0
   19.6804    8.6238    8.3332 H   0  0  0  0  0  0  0  0  0  0  0  0
   13.5618   13.9058    5.3500 H   0  0  0  0  0  0  0  0  0  0  0  0
   13.8247   13.4219    3.6895 H   0  0  0  0  0  0  0  0  0  0  0  0
  1  2  1  1
  1  3  2  0
  1  7  1  0
  4  5  1  0
  4  6  1  0
  5 10  1  0
  6  7  1  6
  6  8  1  0
  8  9  1  1
  8 10  1  0
  9 22  1  0
 10 21  1  6
 11 12  1  0
 11 17  1  0
 12 13  1  0
 12 14  2  0
 13 23  1  0
 13 24  1  0
 14 15  1  0
 15 16  2  0
 15 21  1  0
 16 17  1  0
 16 19  1  0
 17 18  2  0
 19 20  2  0
 20 21  1  0
M  CHG  1   2  -1
M  END
>  <CHROM.0>  (65) 
59.54886532

>  <CHROM.1>  (65) 
-40.64699469,168.45637799,-59.39355960,-48.90400554,99.18103666,16.15349938
9.16424179,5.69058409,0.52142009,0.15125872,-3.02407647

>  <Name>  (65) 
7lng_h

>  <RI>  (65) 
8.5107e+06

>  <Rbt.Current_Directory>  (65) 
/home/jta30/NA_complexes/7lng

>  <Rbt.Executable>  (65) 
rbdock ($Id: //depot/dev/client3/rdock/2013.1/src/exe/rbdock.cxx#4 $)

>  <Rbt.Library>  (65) 
libRbt.so (2013.1, Build901 2013/11/27)

>  <Rbt.Parameter_File>  (65) 
/software/dev_tools/swtree/cs400_centos7.2_pe2016-08/rdock/2013.1/centos7.2_conda/build/data/scripts/dock.prm

>  <Rbt.Receptor>  (65) 
7lng.prm

>  <SCORE>  (65) 
-16.4614

>  <SCORE.INTER>  (65) 
-13.2086

>  <SCORE.INTER.CONST>  (65) 
1

>  <SCORE.INTER.POLAR>  (65) 
-1.11939

>  <SCORE.INTER.REPUL>  (65) 
0

>  <SCORE.INTER.ROT>  (65) 
4

>  <SCORE.INTER.VDW>  (65) 
-18.8027

>  <SCORE.INTER.norm>  (65) 
-0.628982

>  <SCORE.INTRA>  (65) 
-3.84086

>  <SCORE.INTRA.DIHEDRAL>  (65) 
-7.10025

>  <SCORE.INTRA.DIHEDRAL.0>  (65) 
10.6104

>  <SCORE.INTRA.POLAR>  (65) 
0

>  <SCORE.INTRA.POLAR.0>  (65) 
0

>  <SCORE.INTRA.REPUL>  (65) 
0

>  <SCORE.INTRA.REPUL.0>  (65) 
0

>  <SCORE.INTRA.VDW>  (65) 
-0.29073

>  <SCORE.INTRA.VDW.0>  (65) 
-1.96818

>  <SCORE.INTRA.norm>  (65) 
-0.182898

>  <SCORE.RESTR>  (65) 
0

>  <SCORE.RESTR.CAVITY>  (65) 
0

>  <SCORE.RESTR.norm>  (65) 
0

>  <SCORE.SYSTEM>  (65) 
0.588067

>  <SCORE.SYSTEM.CONST>  (65) 
0

>  <SCORE.SYSTEM.DIHEDRAL>  (65) 
0.27064

>  <SCORE.SYSTEM.VDW>  (65) 
0.452746

>  <SCORE.SYSTEM.norm>  (65) 
0.0280032

>  <SCORE.heavy>  (65) 
21

>  <SCORE.norm>  (65) 
-0.783876

>  <Predicted_Rank>  (65) 
65.0

$$$$
7lng_h
     RDKit          3D

 24 26  0  0  0  0  0  0  0  0999 V2000
   15.5913    6.1835    4.6713 P   0  0  1  0  0  0  0  0  0  0  0  0
   15.4895    4.8013    4.1434 O   0  0  0  0  0  0  0  0  0  0  0  0
   15.3481    6.4756    6.1069 O   0  0  0  0  0  0  0  0  0  0  0  0
   19.2996    7.6520    4.7708 C   0  0  0  0  0  0  0  0  0  0  0  0
   18.8602    8.9190    4.2664 O   0  0  0  0  0  0  0  0  0  0  0  0
   18.0133    7.1591    5.4230 C   0  0  2  0  0  0  0  0  0  0  0  0
   17.0703    6.7747    4.3740 O   0  0  0  0  0  0  0  0  0  0  0  0
   17.4593    8.3584    6.1256 C   0  0  1  0  0  0  0  0  0  0  0  0
   18.0956    8.6348    7.4091 O   0  0  0  0  0  0  0  0  0  0  0  0
   17.7813    9.4395    5.1035 C   0  0  2  0  0  0  0  0  0  0  0  0
   13.6664   12.3212    5.7469 N   0  0  0  0  0  0  0  0  0  0  0  0
   14.8219   12.1624    6.5552 C   0  0  0  0  0  0  0  0  0  0  0  0
   14.9511   12.8335    7.7092 N   0  0  0  0  0  0  0  0  0  0  0  0
   15.7918   11.3184    6.1378 N   0  0  0  0  0  0  0  0  0  0  0  0
   15.6553   10.6444    4.9793 C   0  0  0  0  0  0  0  0  0  0  0  0
   14.5726   10.7800    4.1789 C   0  0  0  0  0  0  0  0  0  0  0  0
   13.5698   11.5947    4.5291 C   0  0  0  0  0  0  0  0  0  0  0  0
   12.5683   11.7300    3.8124 O   0  0  0  0  0  0  0  0  0  0  0  0
   14.7404    9.9831    3.1203 N   0  0  0  0  0  0  0  0  0  0  0  0
   15.9119    9.3695    3.2523 C   0  0  0  0  0  0  0  0  0  0  0  0
   16.4888    9.7883    4.3997 N   0  0  0  0  0  0  0  0  0  0  0  0
   18.1713    7.8199    7.9111 H   0  0  0  0  0  0  0  0  0  0  0  0
   14.1577   12.9359    8.3256 H   0  0  0  0  0  0  0  0  0  0  0  0
   15.8423   13.2362    7.9617 H   0  0  0  0  0  0  0  0  0  0  0  0
  1  2  1  1
  1  3  2  0
  1  7  1  0
  4  5  1  0
  4  6  1  0
  5 10  1  0
  6  7  1  6
  6  8  1  0
  8  9  1  1
  8 10  1  0
  9 22  1  0
 10 21  1  6
 11 12  1  0
 11 17  1  0
 12 13  1  0
 12 14  2  0
 13 23  1  0
 13 24  1  0
 14 15  1  0
 15 16  2  0
 15 21  1  0
 16 17  1  0
 16 19  1  0
 17 18  2  0
 19 20  2  0
 20 21  1  0
M  CHG  1   2  -1
M  END
>  <CHROM.0>  (66) 
-62.19394465

>  <CHROM.1>  (66) 
-117.17213449,179.30552744,-46.06585664,-158.17049651,41.15150322,15.99467974
9.12737783,5.09806194,1.02220516,0.45600524,-2.77704063

>  <Name>  (66) 
7lng_h

>  <RI>  (66) 
8.5107e+06

>  <Rbt.Current_Directory>  (66) 
/home/jta30/NA_complexes/7lng

>  <Rbt.Executable>  (66) 
rbdock ($Id: //depot/dev/client3/rdock/2013.1/src/exe/rbdock.cxx#4 $)

>  <Rbt.Library>  (66) 
libRbt.so (2013.1, Build901 2013/11/27)

>  <Rbt.Parameter_File>  (66) 
/software/dev_tools/swtree/cs400_centos7.2_pe2016-08/rdock/2013.1/centos7.2_conda/build/data/scripts/dock.prm

>  <Rbt.Receptor>  (66) 
7lng.prm

>  <SCORE>  (66) 
-15.6351

>  <SCORE.INTER>  (66) 
-12.1182

>  <SCORE.INTER.CONST>  (66) 
1

>  <SCORE.INTER.POLAR>  (66) 
-2.93135

>  <SCORE.INTER.REPUL>  (66) 
0.00940836

>  <SCORE.INTER.ROT>  (66) 
4

>  <SCORE.INTER.VDW>  (66) 
-11.5987

>  <SCORE.INTER.norm>  (66) 
-0.577058

>  <SCORE.INTRA>  (66) 
-3.49244

>  <SCORE.INTRA.DIHEDRAL>  (66) 
-5.98903

>  <SCORE.INTRA.DIHEDRAL.0>  (66) 
10.6104

>  <SCORE.INTRA.POLAR>  (66) 
0

>  <SCORE.INTRA.POLAR.0>  (66) 
0

>  <SCORE.INTRA.REPUL>  (66) 
0

>  <SCORE.INTRA.REPUL.0>  (66) 
0

>  <SCORE.INTRA.VDW>  (66) 
-0.497924

>  <SCORE.INTRA.VDW.0>  (66) 
-1.96818

>  <SCORE.INTRA.norm>  (66) 
-0.166307

>  <SCORE.RESTR>  (66) 
0

>  <SCORE.RESTR.CAVITY>  (66) 
0

>  <SCORE.RESTR.norm>  (66) 
0

>  <SCORE.SYSTEM>  (66) 
-0.024414

>  <SCORE.SYSTEM.CONST>  (66) 
0

>  <SCORE.SYSTEM.DIHEDRAL>  (66) 
0.291661

>  <SCORE.SYSTEM.VDW>  (66) 
-0.170244

>  <SCORE.SYSTEM.norm>  (66) 
-0.00116257

>  <SCORE.heavy>  (66) 
21

>  <SCORE.norm>  (66) 
-0.744527

>  <Predicted_Rank>  (66) 
66.0

$$$$
7lng_h
     RDKit          3D

 24 26  0  0  0  0  0  0  0  0999 V2000
   12.0486    8.9975    4.7787 P   0  0  1  0  0  0  0  0  0  0  0  0
   11.2565    7.7520    4.9225 O   0  0  0  0  0  0  0  0  0  0  0  0
   11.4317   10.3290    5.0073 O   0  0  0  0  0  0  0  0  0  0  0  0
   14.8926    7.6324    4.4837 C   0  0  0  0  0  0  0  0  0  0  0  0
   15.7691    8.7649    4.4434 O   0  0  0  0  0  0  0  0  0  0  0  0
   14.2551    7.8317    5.8536 C   0  0  2  0  0  0  0  0  0  0  0  0
   13.3216    8.9544    5.7802 O   0  0  0  0  0  0  0  0  0  0  0  0
   15.3881    8.2302    6.7461 C   0  0  1  0  0  0  0  0  0  0  0  0
   16.2012    7.1079    7.2019 O   0  0  0  0  0  0  0  0  0  0  0  0
   16.1689    9.1320    5.8003 C   0  0  2  0  0  0  0  0  0  0  0  0
   18.2491   12.8149    8.5857 N   0  0  0  0  0  0  0  0  0  0  0  0
   18.7083   11.5052    8.2901 C   0  0  0  0  0  0  0  0  0  0  0  0
   19.8724   11.0572    8.7828 N   0  0  0  0  0  0  0  0  0  0  0  0
   17.9461   10.7158    7.5006 N   0  0  0  0  0  0  0  0  0  0  0  0
   16.7759   11.1697    7.0111 C   0  0  0  0  0  0  0  0  0  0  0  0
   16.3132   12.4161    7.2635 C   0  0  0  0  0  0  0  0  0  0  0  0
   17.0116   13.2528    8.0408 C   0  0  0  0  0  0  0  0  0  0  0  0
   16.6038   14.3965    8.2872 O   0  0  0  0  0  0  0  0  0  0  0  0
   15.1390   12.5533    6.6421 N   0  0  0  0  0  0  0  0  0  0  0  0
   14.8788   11.4168    6.0043 C   0  0  0  0  0  0  0  0  0  0  0  0
   15.9003   10.5597    6.2207 N   0  0  0  0  0  0  0  0  0  0  0  0
   16.9739    7.4396    7.6653 H   0  0  0  0  0  0  0  0  0  0  0  0
   20.2496   11.4569    9.6301 H   0  0  0  0  0  0  0  0  0  0  0  0
   20.3719   10.3200    8.3061 H   0  0  0  0  0  0  0  0  0  0  0  0
  1  2  1  1
  1  3  2  0
  1  7  1  0
  4  5  1  0
  4  6  1  0
  5 10  1  0
  6  7  1  6
  6  8  1  0
  8  9  1  6
  8 10  1  0
  9 22  1  0
 10 21  1  1
 11 12  1  0
 11 17  1  0
 12 13  1  0
 12 14  2  0
 13 23  1  0
 13 24  1  0
 14 15  1  0
 15 16  2  0
 15 21  1  0
 16 17  1  0
 16 19  1  0
 17 18  2  0
 19 20  2  0
 20 21  1  0
M  CHG  1   2  -1
M  END
>  <CHROM.0>  (67) 
-177.97956938

>  <CHROM.1>  (67) 
50.82911049,59.36681351,172.23652213,-143.86354993,24.67611910,15.37556966
10.17356289,6.43344902,2.48271096,0.38528008,-2.90134276

>  <Name>  (67) 
7lng_h

>  <RI>  (67) 
8.5107e+06

>  <Rbt.Current_Directory>  (67) 
/home/jta30/NA_complexes/7lng

>  <Rbt.Executable>  (67) 
rbdock ($Id: //depot/dev/client3/rdock/2013.1/src/exe/rbdock.cxx#4 $)

>  <Rbt.Library>  (67) 
libRbt.so (2013.1, Build901 2013/11/27)

>  <Rbt.Parameter_File>  (67) 
/software/dev_tools/swtree/cs400_centos7.2_pe2016-08/rdock/2013.1/centos7.2_conda/build/data/scripts/dock.prm

>  <Rbt.Receptor>  (67) 
7lng.prm

>  <SCORE>  (67) 
-15.4631

>  <SCORE.INTER>  (67) 
-11.2479

>  <SCORE.INTER.CONST>  (67) 
1

>  <SCORE.INTER.POLAR>  (67) 
-1.02058

>  <SCORE.INTER.REPUL>  (67) 
0

>  <SCORE.INTER.ROT>  (67) 
4

>  <SCORE.INTER.VDW>  (67) 
-17.1779

>  <SCORE.INTER.norm>  (67) 
-0.535615

>  <SCORE.INTRA>  (67) 
-4.1702

>  <SCORE.INTRA.DIHEDRAL>  (67) 
-8.01837

>  <SCORE.INTRA.DIHEDRAL.0>  (67) 
10.6104

>  <SCORE.INTRA.POLAR>  (67) 
0

>  <SCORE.INTRA.POLAR.0>  (67) 
0

>  <SCORE.INTRA.REPUL>  (67) 
0

>  <SCORE.INTRA.REPUL.0>  (67) 
0

>  <SCORE.INTRA.VDW>  (67) 
-0.161012

>  <SCORE.INTRA.VDW.0>  (67) 
-1.96818

>  <SCORE.INTRA.norm>  (67) 
-0.198581

>  <SCORE.RESTR>  (67) 
0

>  <SCORE.RESTR.CAVITY>  (67) 
0

>  <SCORE.RESTR.norm>  (67) 
0

>  <SCORE.SYSTEM>  (67) 
-0.0450246

>  <SCORE.SYSTEM.CONST>  (67) 
0

>  <SCORE.SYSTEM.DIHEDRAL>  (67) 
0.288329

>  <SCORE.SYSTEM.VDW>  (67) 
-0.189189

>  <SCORE.SYSTEM.norm>  (67) 
-0.00214403

>  <SCORE.heavy>  (67) 
21

>  <SCORE.norm>  (67) 
-0.73634

>  <Predicted_Rank>  (67) 
67.0

$$$$
7lng_h
     RDKit          3D

 24 26  0  0  0  0  0  0  0  0999 V2000
   18.4531   12.9502    8.1121 P   0  0  1  0  0  0  0  0  0  0  0  0
   17.9691   12.6406    9.4793 O   0  0  0  0  0  0  0  0  0  0  0  0
   19.8538   13.3828    7.8744 O   0  0  0  0  0  0  0  0  0  0  0  0
   19.8154    9.9690    7.9283 C   0  0  0  0  0  0  0  0  0  0  0  0
   18.7204    9.0540    8.0559 O   0  0  0  0  0  0  0  0  0  0  0  0
   19.3466   10.7874    6.7311 C   0  0  2  0  0  0  0  0  0  0  0  0
   18.2515   11.6583    7.1552 O   0  0  0  0  0  0  0  0  0  0  0  0
   18.7914    9.7791    5.7751 C   0  0  1  0  0  0  0  0  0  0  0  0
   19.8102    9.0818    4.9976 O   0  0  0  0  0  0  0  0  0  0  0  0
   18.0989    8.8383    6.7510 C   0  0  2  0  0  0  0  0  0  0  0  0
   13.9126    6.8609    4.6979 N   0  0  0  0  0  0  0  0  0  0  0  0
   15.2559    6.4035    4.6849 C   0  0  0  0  0  0  0  0  0  0  0  0
   15.5909    5.2726    4.0465 N   0  0  0  0  0  0  0  0  0  0  0  0
   16.1934    7.1330    5.3299 N   0  0  0  0  0  0  0  0  0  0  0  0
   15.8519    8.2700    5.9669 C   0  0  0  0  0  0  0  0  0  0  0  0
   14.5797    8.7295    6.0088 C   0  0  0  0  0  0  0  0  0  0  0  0
   13.5984    8.0623    5.3891 C   0  0  0  0  0  0  0  0  0  0  0  0
   12.4280    8.4681    5.4123 O   0  0  0  0  0  0  0  0  0  0  0  0
   14.5755    9.8676    6.7078 N   0  0  0  0  0  0  0  0  0  0  0  0
   15.8210   10.1082    7.1043 C   0  0  0  0  0  0  0  0  0  0  0  0
   16.6141    9.1104    6.6568 N   0  0  0  0  0  0  0  0  0  0  0  0
   20.4123    8.6283    5.5923 H   0  0  0  0  0  0  0  0  0  0  0  0
   16.4808    5.2039    3.5740 H   0  0  0  0  0  0  0  0  0  0  0  0
   14.9529    4.4896    4.0386 H   0  0  0  0  0  0  0  0  0  0  0  0
  1  2  1  1
  1  3  2  0
  1  7  1  0
  4  5  1  0
  4  6  1  0
  5 10  1  0
  6  7  1  1
  6  8  1  0
  8  9  1  1
  8 10  1  0
  9 22  1  0
 10 21  1  1
 11 12  1  0
 11 17  1  0
 12 13  1  0
 12 14  2  0
 13 23  1  0
 13 24  1  0
 14 15  1  0
 15 16  2  0
 15 21  1  0
 16 17  1  0
 16 19  1  0
 17 18  2  0
 19 20  2  0
 20 21  1  0
M  CHG  1   2  -1
M  END
>  <CHROM.0>  (68) 
-177.63925781

>  <CHROM.1>  (68) 
-104.84399947,71.33783462,58.96302808,-138.40188675,144.31692140,17.00507347
9.59806054,6.54144226,0.90219587,0.00184545,0.53495751

>  <Name>  (68) 
7lng_h

>  <RI>  (68) 
8.5107e+06

>  <Rbt.Current_Directory>  (68) 
/home/jta30/NA_complexes/7lng

>  <Rbt.Executable>  (68) 
rbdock ($Id: //depot/dev/client3/rdock/2013.1/src/exe/rbdock.cxx#4 $)

>  <Rbt.Library>  (68) 
libRbt.so (2013.1, Build901 2013/11/27)

>  <Rbt.Parameter_File>  (68) 
/software/dev_tools/swtree/cs400_centos7.2_pe2016-08/rdock/2013.1/centos7.2_conda/build/data/scripts/dock.prm

>  <Rbt.Receptor>  (68) 
7lng.prm

>  <SCORE>  (68) 
-13.0732

>  <SCORE.INTER>  (68) 
-9.65305

>  <SCORE.INTER.CONST>  (68) 
1

>  <SCORE.INTER.POLAR>  (68) 
-1.87884

>  <SCORE.INTER.REPUL>  (68) 
0.0558874

>  <SCORE.INTER.ROT>  (68) 
4

>  <SCORE.INTER.VDW>  (68) 
-12.9444

>  <SCORE.INTER.norm>  (68) 
-0.459669

>  <SCORE.INTRA>  (68) 
-3.37581

>  <SCORE.INTRA.DIHEDRAL>  (68) 
-6.58566

>  <SCORE.INTRA.DIHEDRAL.0>  (68) 
10.6104

>  <SCORE.INTRA.POLAR>  (68) 
0

>  <SCORE.INTRA.POLAR.0>  (68) 
0

>  <SCORE.INTRA.REPUL>  (68) 
0

>  <SCORE.INTRA.REPUL.0>  (68) 
0

>  <SCORE.INTRA.VDW>  (68) 
-0.0829856

>  <SCORE.INTRA.VDW.0>  (68) 
-1.96818

>  <SCORE.INTRA.norm>  (68) 
-0.160753

>  <SCORE.RESTR>  (68) 
0

>  <SCORE.RESTR.CAVITY>  (68) 
0

>  <SCORE.RESTR.norm>  (68) 
0

>  <SCORE.SYSTEM>  (68) 
-0.044306

>  <SCORE.SYSTEM.CONST>  (68) 
0

>  <SCORE.SYSTEM.DIHEDRAL>  (68) 
0.295121

>  <SCORE.SYSTEM.VDW>  (68) 
-0.191866

>  <SCORE.SYSTEM.norm>  (68) 
-0.00210981

>  <SCORE.heavy>  (68) 
21

>  <SCORE.norm>  (68) 
-0.622532

>  <Predicted_Rank>  (68) 
68.0

$$$$
7lng_h
     RDKit          3D

 24 26  0  0  0  0  0  0  0  0999 V2000
   15.6341    8.0327    6.8594 P   0  0  1  0  0  0  0  0  0  0  0  0
   15.1818    6.7222    7.3863 O   0  0  0  0  0  0  0  0  0  0  0  0
   16.5214    8.1164    5.6714 O   0  0  0  0  0  0  0  0  0  0  0  0
   12.5787    9.9419    5.1503 C   0  0  0  0  0  0  0  0  0  0  0  0
   13.0824   11.2357    5.5039 O   0  0  0  0  0  0  0  0  0  0  0  0
   13.8783    9.1468    5.1103 C   0  0  2  0  0  0  0  0  0  0  0  0
   14.3481    8.9424    6.4796 O   0  0  0  0  0  0  0  0  0  0  0  0
   14.8529   10.0456    4.4166 C   0  0  1  0  0  0  0  0  0  0  0  0
   14.7196   10.0487    2.9638 O   0  0  0  0  0  0  0  0  0  0  0  0
   14.4504   11.3872    5.0128 C   0  0  2  0  0  0  0  0  0  0  0  0
   15.6346   15.1589    8.1784 N   0  0  0  0  0  0  0  0  0  0  0  0
   14.5393   15.0049    7.2894 C   0  0  0  0  0  0  0  0  0  0  0  0
   13.6024   15.9584    7.1813 N   0  0  0  0  0  0  0  0  0  0  0  0
   14.4598   13.8754    6.5512 N   0  0  0  0  0  0  0  0  0  0  0  0
   15.4055   12.9223    6.6614 C   0  0  0  0  0  0  0  0  0  0  0  0
   16.4569   13.0311    7.5065 C   0  0  0  0  0  0  0  0  0  0  0  0
   16.6042   14.1235    8.2662 C   0  0  0  0  0  0  0  0  0  0  0  0
   17.5615   14.2443    9.0435 O   0  0  0  0  0  0  0  0  0  0  0  0
   17.2050   11.9323    7.3772 N   0  0  0  0  0  0  0  0  0  0  0  0
   16.6250   11.1468    6.4755 C   0  0  0  0  0  0  0  0  0  0  0  0
   15.4997   11.7532    6.0387 N   0  0  0  0  0  0  0  0  0  0  0  0
   14.8736    9.1633    2.6261 H   0  0  0  0  0  0  0  0  0  0  0  0
   13.8653   16.8976    6.9192 H   0  0  0  0  0  0  0  0  0  0  0  0
   12.6337   15.7368    7.3620 H   0  0  0  0  0  0  0  0  0  0  0  0
  1  2  1  6
  1  3  2  0
  1  7  1  0
  4  5  1  0
  4  6  1  0
  5 10  1  0
  6  7  1  1
  6  8  1  0
  8  9  1  6
  8 10  1  0
  9 22  1  0
 10 21  1  1
 11 12  1  0
 11 17  1  0
 12 13  1  0
 12 14  2  0
 13 23  1  0
 13 24  1  0
 14 15  1  0
 15 16  2  0
 15 21  1  0
 16 17  1  0
 16 19  1  0
 17 18  2  0
 19 20  2  0
 20 21  1  0
M  CHG  1   2  -1
M  END
>  <CHROM.0>  (69) 
59.85954115

>  <CHROM.1>  (69) 
-102.64965022,174.63376855,-60.78031629,-63.65387834,57.84691208,15.17957443
11.28744440,6.42914045,-1.68951900,-0.74125398,0.21775493

>  <Name>  (69) 
7lng_h

>  <RI>  (69) 
8.5107e+06

>  <Rbt.Current_Directory>  (69) 
/home/jta30/NA_complexes/7lng

>  <Rbt.Executable>  (69) 
rbdock ($Id: //depot/dev/client3/rdock/2013.1/src/exe/rbdock.cxx#4 $)

>  <Rbt.Library>  (69) 
libRbt.so (2013.1, Build901 2013/11/27)

>  <Rbt.Parameter_File>  (69) 
/software/dev_tools/swtree/cs400_centos7.2_pe2016-08/rdock/2013.1/centos7.2_conda/build/data/scripts/dock.prm

>  <Rbt.Receptor>  (69) 
7lng.prm

>  <SCORE>  (69) 
-16.6561

>  <SCORE.INTER>  (69) 
-13.3699

>  <SCORE.INTER.CONST>  (69) 
1

>  <SCORE.INTER.POLAR>  (69) 
-2.34989

>  <SCORE.INTER.REPUL>  (69) 
0

>  <SCORE.INTER.ROT>  (69) 
4

>  <SCORE.INTER.VDW>  (69) 
-14.7803

>  <SCORE.INTER.norm>  (69) 
-0.636664

>  <SCORE.INTRA>  (69) 
-3.87582

>  <SCORE.INTRA.DIHEDRAL>  (69) 
-7.04117

>  <SCORE.INTRA.DIHEDRAL.0>  (69) 
10.6104

>  <SCORE.INTRA.POLAR>  (69) 
0

>  <SCORE.INTRA.POLAR.0>  (69) 
0

>  <SCORE.INTRA.REPUL>  (69) 
0

>  <SCORE.INTRA.REPUL.0>  (69) 
0

>  <SCORE.INTRA.VDW>  (69) 
-0.355239

>  <SCORE.INTRA.VDW.0>  (69) 
-1.96818

>  <SCORE.INTRA.norm>  (69) 
-0.184563

>  <SCORE.RESTR>  (69) 
0.00180348

>  <SCORE.RESTR.CAVITY>  (69) 
0.00180348

>  <SCORE.RESTR.norm>  (69) 
8.58802e-05

>  <SCORE.SYSTEM>  (69) 
0.587886

>  <SCORE.SYSTEM.CONST>  (69) 
0

>  <SCORE.SYSTEM.DIHEDRAL>  (69) 
0.269801

>  <SCORE.SYSTEM.VDW>  (69) 
0.452986

>  <SCORE.SYSTEM.norm>  (69) 
0.0279946

>  <SCORE.heavy>  (69) 
21

>  <SCORE.norm>  (69) 
-0.793146

>  <Predicted_Rank>  (69) 
69.0

$$$$
7lng_h
     RDKit          3D

 24 26  0  0  0  0  0  0  0  0999 V2000
   15.2387    8.0009    6.5941 P   0  0  1  0  0  0  0  0  0  0  0  0
   14.0881    8.8111    6.1258 O   0  0  0  0  0  0  0  0  0  0  0  0
   15.0386    6.8240    7.4775 O   0  0  0  0  0  0  0  0  0  0  0  0
   17.9534    6.8820    3.9031 C   0  0  0  0  0  0  0  0  0  0  0  0
   17.8559    8.1866    3.3191 O   0  0  0  0  0  0  0  0  0  0  0  0
   17.4997    7.1873    5.3256 C   0  0  2  0  0  0  0  0  0  0  0  0
   16.0574    7.4263    5.3194 O   0  0  0  0  0  0  0  0  0  0  0  0
   18.1799    8.4737    5.6740 C   0  0  1  0  0  0  0  0  0  0  0  0
   19.5748    8.3134    6.0706 O   0  0  0  0  0  0  0  0  0  0  0  0
   18.0625    9.2066    4.3451 C   0  0  2  0  0  0  0  0  0  0  0  0
   16.5044   12.7495    7.6116 N   0  0  0  0  0  0  0  0  0  0  0  0
   17.6229   11.8772    7.6547 C   0  0  0  0  0  0  0  0  0  0  0  0
   18.4748   11.9025    8.6902 N   0  0  0  0  0  0  0  0  0  0  0  0
   17.8121   11.0175    6.6289 N   0  0  0  0  0  0  0  0  0  0  0  0
   16.9514   10.9942    5.5928 C   0  0  0  0  0  0  0  0  0  0  0  0
   15.8813   11.8188    5.5138 C   0  0  0  0  0  0  0  0  0  0  0  0
   15.6274   12.6939    6.4946 C   0  0  0  0  0  0  0  0  0  0  0  0
   14.6511   13.4549    6.4432 O   0  0  0  0  0  0  0  0  0  0  0  0
   15.2339   11.5461    4.3779 N   0  0  0  0  0  0  0  0  0  0  0  0
   15.8943   10.5761    3.7539 C   0  0  0  0  0  0  0  0  0  0  0  0
   16.9693   10.2402    4.4998 N   0  0  0  0  0  0  0  0  0  0  0  0
   20.0704    7.9219    5.3475 H   0  0  0  0  0  0  0  0  0  0  0  0
   18.4245   11.1891    9.4033 H   0  0  0  0  0  0  0  0  0  0  0  0
   19.1669   12.6351    8.7566 H   0  0  0  0  0  0  0  0  0  0  0  0
  1  2  1  6
  1  3  2  0
  1  7  1  0
  4  5  1  0
  4  6  1  0
  5 10  1  0
  6  7  1  6
  6  8  1  0
  8  9  1  6
  8 10  1  0
  9 22  1  0
 10 21  1  1
 11 12  1  0
 11 17  1  0
 12 13  1  0
 12 14  2  0
 13 23  1  0
 13 24  1  0
 14 15  1  0
 15 16  2  0
 15 21  1  0
 16 17  1  0
 16 19  1  0
 17 18  2  0
 19 20  2  0
 20 21  1  0
M  CHG  1   2  -1
M  END
>  <CHROM.0>  (70) 
59.41448413

>  <CHROM.1>  (70) 
148.60776202,-170.34615645,60.41452132,164.91941391,102.42635675,16.64589280
9.73685775,5.85150986,1.41089391,-0.13320776,-2.84245940

>  <Name>  (70) 
7lng_h

>  <RI>  (70) 
8.5107e+06

>  <Rbt.Current_Directory>  (70) 
/home/jta30/NA_complexes/7lng

>  <Rbt.Executable>  (70) 
rbdock ($Id: //depot/dev/client3/rdock/2013.1/src/exe/rbdock.cxx#4 $)

>  <Rbt.Library>  (70) 
libRbt.so (2013.1, Build901 2013/11/27)

>  <Rbt.Parameter_File>  (70) 
/software/dev_tools/swtree/cs400_centos7.2_pe2016-08/rdock/2013.1/centos7.2_conda/build/data/scripts/dock.prm

>  <Rbt.Receptor>  (70) 
7lng.prm

>  <SCORE>  (70) 
-16.2441

>  <SCORE.INTER>  (70) 
-12.7867

>  <SCORE.INTER.CONST>  (70) 
1

>  <SCORE.INTER.POLAR>  (70) 
-2.87688

>  <SCORE.INTER.REPUL>  (70) 
0

>  <SCORE.INTER.ROT>  (70) 
4

>  <SCORE.INTER.VDW>  (70) 
-12.4053

>  <SCORE.INTER.norm>  (70) 
-0.608891

>  <SCORE.INTRA>  (70) 
-4.04589

>  <SCORE.INTRA.DIHEDRAL>  (70) 
-7.14108

>  <SCORE.INTRA.DIHEDRAL.0>  (70) 
10.6104

>  <SCORE.INTRA.POLAR>  (70) 
0

>  <SCORE.INTRA.POLAR.0>  (70) 
0

>  <SCORE.INTRA.REPUL>  (70) 
0

>  <SCORE.INTRA.REPUL.0>  (70) 
0

>  <SCORE.INTRA.VDW>  (70) 
-0.475347

>  <SCORE.INTRA.VDW.0>  (70) 
-1.96818

>  <SCORE.INTRA.norm>  (70) 
-0.192661

>  <SCORE.RESTR>  (70) 
0.000210734

>  <SCORE.RESTR.CAVITY>  (70) 
0.000210734

>  <SCORE.RESTR.norm>  (70) 
1.00349e-05

>  <SCORE.SYSTEM>  (70) 
0.588311

>  <SCORE.SYSTEM.CONST>  (70) 
0

>  <SCORE.SYSTEM.DIHEDRAL>  (70) 
0.271276

>  <SCORE.SYSTEM.VDW>  (70) 
0.452673

>  <SCORE.SYSTEM.norm>  (70) 
0.0280148

>  <SCORE.heavy>  (70) 
21

>  <SCORE.norm>  (70) 
-0.773528

>  <Predicted_Rank>  (70) 
70.0

$$$$
7lng_h
     RDKit          3D

 24 26  0  0  0  0  0  0  0  0999 V2000
   15.9704    8.1646    6.9106 P   0  0  1  0  0  0  0  0  0  0  0  0
   15.1627    7.0221    7.4023 O   0  0  0  0  0  0  0  0  0  0  0  0
   16.6911    8.0922    5.6141 O   0  0  0  0  0  0  0  0  0  0  0  0
   16.4420   10.9689    5.4822 C   0  0  0  0  0  0  0  0  0  0  0  0
   15.4392   10.9706    4.4590 O   0  0  0  0  0  0  0  0  0  0  0  0
   15.5641   10.8447    6.7218 C   0  0  2  0  0  0  0  0  0  0  0  0
   15.0361    9.4831    6.7910 O   0  0  0  0  0  0  0  0  0  0  0  0
   14.4176   11.7727    6.4705 C   0  0  1  0  0  0  0  0  0  0  0  0
   14.7258   13.1741    6.7343 O   0  0  0  0  0  0  0  0  0  0  0  0
   14.1936   11.5249    4.9853 C   0  0  2  0  0  0  0  0  0  0  0  0
    9.7193   11.4621    2.6132 N   0  0  0  0  0  0  0  0  0  0  0  0
   10.7818   12.4014    2.5625 C   0  0  0  0  0  0  0  0  0  0  0  0
   10.6932   13.4987    1.7965 N   0  0  0  0  0  0  0  0  0  0  0  0
   11.8873   12.1677    3.3044 N   0  0  0  0  0  0  0  0  0  0  0  0
   11.9696   11.0654    4.0746 C   0  0  0  0  0  0  0  0  0  0  0  0
   10.9808   10.1437    4.1384 C   0  0  0  0  0  0  0  0  0  0  0  0
    9.8541   10.3100    3.4347 C   0  0  0  0  0  0  0  0  0  0  0  0
    8.9356    9.4800    3.4821 O   0  0  0  0  0  0  0  0  0  0  0  0
   11.3658    9.1842    4.9838 N   0  0  0  0  0  0  0  0  0  0  0  0
   12.5779    9.4959    5.4311 C   0  0  0  0  0  0  0  0  0  0  0  0
   12.9613   10.6574    4.8578 N   0  0  0  0  0  0  0  0  0  0  0  0
   14.9532   13.2831    7.6607 H   0  0  0  0  0  0  0  0  0  0  0  0
   10.8256   13.4296    0.7977 H   0  0  0  0  0  0  0  0  0  0  0  0
   10.4938   14.3943    2.2189 H   0  0  0  0  0  0  0  0  0  0  0  0
  1  2  1  6
  1  3  2  0
  1  7  1  0
  4  5  1  0
  4  6  1  0
  5 10  1  0
  6  7  1  6
  6  8  1  0
  8  9  1  6
  8 10  1  0
  9 22  1  0
 10 21  1  1
 11 12  1  0
 11 17  1  0
 12 13  1  0
 12 14  2  0
 13 23  1  0
 13 24  1  0
 14 15  1  0
 15 16  2  0
 15 21  1  0
 16 17  1  0
 16 19  1  0
 17 18  2  0
 19 20  2  0
 20 21  1  0
M  CHG  1   2  -1
M  END
>  <CHROM.0>  (71) 
-178.82381203

>  <CHROM.1>  (71) 
161.38494519,60.84999579,-61.79419506,-114.52005975,-76.93172957,13.34917697
10.42175773,5.01930081,0.50424601,0.45722481,2.83535034

>  <Name>  (71) 
7lng_h

>  <RI>  (71) 
8.5107e+06

>  <Rbt.Current_Directory>  (71) 
/home/jta30/NA_complexes/7lng

>  <Rbt.Executable>  (71) 
rbdock ($Id: //depot/dev/client3/rdock/2013.1/src/exe/rbdock.cxx#4 $)

>  <Rbt.Library>  (71) 
libRbt.so (2013.1, Build901 2013/11/27)

>  <Rbt.Parameter_File>  (71) 
/software/dev_tools/swtree/cs400_centos7.2_pe2016-08/rdock/2013.1/centos7.2_conda/build/data/scripts/dock.prm

>  <Rbt.Receptor>  (71) 
7lng.prm

>  <SCORE>  (71) 
-17.4031

>  <SCORE.INTER>  (71) 
-13.621

>  <SCORE.INTER.CONST>  (71) 
1

>  <SCORE.INTER.POLAR>  (71) 
-1.46465

>  <SCORE.INTER.REPUL>  (71) 
0

>  <SCORE.INTER.ROT>  (71) 
4

>  <SCORE.INTER.VDW>  (71) 
-18.0412

>  <SCORE.INTER.norm>  (71) 
-0.648618

>  <SCORE.INTRA>  (71) 
-3.7378

>  <SCORE.INTRA.DIHEDRAL>  (71) 
-8.007

>  <SCORE.INTRA.DIHEDRAL.0>  (71) 
10.6104

>  <SCORE.INTRA.POLAR>  (71) 
0

>  <SCORE.INTRA.POLAR.0>  (71) 
0

>  <SCORE.INTRA.REPUL>  (71) 
0

>  <SCORE.INTRA.REPUL.0>  (71) 
0

>  <SCORE.INTRA.VDW>  (71) 
0.2657

>  <SCORE.INTRA.VDW.0>  (71) 
-1.96818

>  <SCORE.INTRA.norm>  (71) 
-0.177991

>  <SCORE.RESTR>  (71) 
0

>  <SCORE.RESTR.CAVITY>  (71) 
0

>  <SCORE.RESTR.norm>  (71) 
0

>  <SCORE.SYSTEM>  (71) 
-0.0443084

>  <SCORE.SYSTEM.CONST>  (71) 
0

>  <SCORE.SYSTEM.DIHEDRAL>  (71) 
0.276025

>  <SCORE.SYSTEM.VDW>  (71) 
-0.182321

>  <SCORE.SYSTEM.norm>  (71) 
-0.00210992

>  <SCORE.heavy>  (71) 
21

>  <SCORE.norm>  (71) 
-0.828718

>  <Predicted_Rank>  (71) 
71.0

$$$$
7lng_h
     RDKit          3D

 24 26  0  0  0  0  0  0  0  0999 V2000
   12.5967   10.2958    5.1302 P   0  0  1  0  0  0  0  0  0  0  0  0
   12.6068   11.6769    4.5897 O   0  0  0  0  0  0  0  0  0  0  0  0
   11.4328    9.3981    4.9179 O   0  0  0  0  0  0  0  0  0  0  0  0
   15.4114    7.6395    4.1647 C   0  0  0  0  0  0  0  0  0  0  0  0
   16.4572    8.4408    4.7276 O   0  0  0  0  0  0  0  0  0  0  0  0
   14.2248    8.1250    4.9887 C   0  0  2  0  0  0  0  0  0  0  0  0
   13.8653    9.4722    4.5491 O   0  0  0  0  0  0  0  0  0  0  0  0
   14.7463    8.2191    6.3880 C   0  0  1  0  0  0  0  0  0  0  0  0
   14.8032    6.9373    7.0824 O   0  0  0  0  0  0  0  0  0  0  0  0
   16.1413    8.7648    6.1172 C   0  0  2  0  0  0  0  0  0  0  0  0
   19.0378   12.2248    8.4169 N   0  0  0  0  0  0  0  0  0  0  0  0
   19.2727   10.8516    8.1467 C   0  0  0  0  0  0  0  0  0  0  0  0
   20.4169   10.2626    8.5243 N   0  0  0  0  0  0  0  0  0  0  0  0
   18.3170   10.1474    7.5003 N   0  0  0  0  0  0  0  0  0  0  0  0
   17.1682   10.7433    7.1262 C   0  0  0  0  0  0  0  0  0  0  0  0
   16.9157   12.0525    7.3577 C   0  0  0  0  0  0  0  0  0  0  0  0
   17.8137   12.8122    7.9968 C   0  0  0  0  0  0  0  0  0  0  0  0
   17.6004   14.0117    8.2218 O   0  0  0  0  0  0  0  0  0  0  0  0
   15.7030   12.3304    6.8720 N   0  0  0  0  0  0  0  0  0  0  0  0
   15.2120   11.2173    6.3371 C   0  0  0  0  0  0  0  0  0  0  0  0
   16.1255   10.2326    6.4816 N   0  0  0  0  0  0  0  0  0  0  0  0
   15.1570    7.0669    7.9655 H   0  0  0  0  0  0  0  0  0  0  0  0
   21.1085   10.7869    9.0407 H   0  0  0  0  0  0  0  0  0  0  0  0
   20.5866    9.2944    8.2920 H   0  0  0  0  0  0  0  0  0  0  0  0
  1  2  1  6
  1  3  2  0
  1  7  1  0
  4  5  1  0
  4  6  1  0
  5 10  1  0
  6  7  1  6
  6  8  1  0
  8  9  1  6
  8 10  1  0
  9 22  1  0
 10 21  1  6
 11 12  1  0
 11 17  1  0
 12 13  1  0
 12 14  2  0
 13 23  1  0
 13 24  1  0
 14 15  1  0
 15 16  2  0
 15 21  1  0
 16 17  1  0
 16 19  1  0
 17 18  2  0
 19 20  2  0
 20 21  1  0
M  CHG  1   2  -1
M  END
>  <CHROM.0>  (72) 
58.84619323

>  <CHROM.1>  (72) 
173.61748192,176.41733395,179.17346605,-101.91290973,2.51773111,15.74786440
10.23471047,6.35230559,2.67100343,0.42616196,-2.91611496

>  <Name>  (72) 
7lng_h

>  <RI>  (72) 
8.5107e+06

>  <Rbt.Current_Directory>  (72) 
/home/jta30/NA_complexes/7lng

>  <Rbt.Executable>  (72) 
rbdock ($Id: //depot/dev/client3/rdock/2013.1/src/exe/rbdock.cxx#4 $)

>  <Rbt.Library>  (72) 
libRbt.so (2013.1, Build901 2013/11/27)

>  <Rbt.Parameter_File>  (72) 
/software/dev_tools/swtree/cs400_centos7.2_pe2016-08/rdock/2013.1/centos7.2_conda/build/data/scripts/dock.prm

>  <Rbt.Receptor>  (72) 
7lng.prm

>  <SCORE>  (72) 
-16.6764

>  <SCORE.INTER>  (72) 
-13.037

>  <SCORE.INTER.CONST>  (72) 
1

>  <SCORE.INTER.POLAR>  (72) 
-2.15841

>  <SCORE.INTER.REPUL>  (72) 
0.0242508

>  <SCORE.INTER.ROT>  (72) 
4

>  <SCORE.INTER.VDW>  (72) 
-15.2197

>  <SCORE.INTER.norm>  (72) 
-0.620809

>  <SCORE.INTRA>  (72) 
-4.22991

>  <SCORE.INTRA.DIHEDRAL>  (72) 
-8.0837

>  <SCORE.INTRA.DIHEDRAL.0>  (72) 
10.6104

>  <SCORE.INTRA.POLAR>  (72) 
0

>  <SCORE.INTRA.POLAR.0>  (72) 
0

>  <SCORE.INTRA.REPUL>  (72) 
0

>  <SCORE.INTRA.REPUL.0>  (72) 
0

>  <SCORE.INTRA.VDW>  (72) 
-0.188059

>  <SCORE.INTRA.VDW.0>  (72) 
-1.96818

>  <SCORE.INTRA.norm>  (72) 
-0.201424

>  <SCORE.RESTR>  (72) 
0

>  <SCORE.RESTR.CAVITY>  (72) 
0

>  <SCORE.RESTR.norm>  (72) 
0

>  <SCORE.SYSTEM>  (72) 
0.590455

>  <SCORE.SYSTEM.CONST>  (72) 
0

>  <SCORE.SYSTEM.DIHEDRAL>  (72) 
0.275787

>  <SCORE.SYSTEM.VDW>  (72) 
0.452561

>  <SCORE.SYSTEM.norm>  (72) 
0.0281169

>  <SCORE.heavy>  (72) 
21

>  <SCORE.norm>  (72) 
-0.794117

>  <Predicted_Rank>  (72) 
72.0

$$$$
7lng_h
     RDKit          3D

 24 26  0  0  0  0  0  0  0  0999 V2000
   15.5062    7.9775    6.6060 P   0  0  1  0  0  0  0  0  0  0  0  0
   16.3659    9.0395    7.1828 O   0  0  0  0  0  0  0  0  0  0  0  0
   15.1717    6.7563    7.3820 O   0  0  0  0  0  0  0  0  0  0  0  0
   12.0675    8.8667    4.8393 C   0  0  0  0  0  0  0  0  0  0  0  0
   12.0430   10.2536    5.1977 O   0  0  0  0  0  0  0  0  0  0  0  0
   13.5713    8.6210    4.8100 C   0  0  2  0  0  0  0  0  0  0  0  0
   14.0730    8.6040    6.1832 O   0  0  0  0  0  0  0  0  0  0  0  0
   14.1401    9.8236    4.1251 C   0  0  1  0  0  0  0  0  0  0  0  0
   14.0267    9.7815    2.6711 O   0  0  0  0  0  0  0  0  0  0  0  0
   13.2565   10.9119    4.7184 C   0  0  2  0  0  0  0  0  0  0  0  0
   14.6060   15.6266    5.9835 N   0  0  0  0  0  0  0  0  0  0  0  0
   13.7614   15.1513    4.9469 C   0  0  0  0  0  0  0  0  0  0  0  0
   13.1730   16.0033    4.0945 N   0  0  0  0  0  0  0  0  0  0  0  0
   13.5622   13.8190    4.8352 N   0  0  0  0  0  0  0  0  0  0  0  0
   14.1584   12.9674    5.6922 C   0  0  0  0  0  0  0  0  0  0  0  0
   14.9605   13.3864    6.6983 C   0  0  0  0  0  0  0  0  0  0  0  0
   15.2076   14.6911    6.8683 C   0  0  0  0  0  0  0  0  0  0  0  0
   15.9420   15.0950    7.7808 O   0  0  0  0  0  0  0  0  0  0  0  0
   15.3918   12.3080    7.3578 N   0  0  0  0  0  0  0  0  0  0  0  0
   14.8595   11.2359    6.7803 C   0  0  0  0  0  0  0  0  0  0  0  0
   14.0821   11.6431    5.7534 N   0  0  0  0  0  0  0  0  0  0  0  0
   14.4953    9.0137    2.3354 H   0  0  0  0  0  0  0  0  0  0  0  0
   13.7012   16.3981    3.3297 H   0  0  0  0  0  0  0  0  0  0  0  0
   12.2013   16.2499    4.2178 H   0  0  0  0  0  0  0  0  0  0  0  0
  1  2  1  1
  1  3  2  0
  1  7  1  0
  4  5  1  0
  4  6  1  0
  5 10  1  0
  6  7  1  1
  6  8  1  0
  8  9  1  6
  8 10  1  0
  9 22  1  0
 10 21  1  1
 11 12  1  0
 11 17  1  0
 12 13  1  0
 12 14  2  0
 13 23  1  0
 13 24  1  0
 14 15  1  0
 15 16  2  0
 15 21  1  0
 16 17  1  0
 16 19  1  0
 17 18  2  0
 19 20  2  0
 20 21  1  0
M  CHG  1   2  -1
M  END
>  <CHROM.0>  (73) 
-61.61594035

>  <CHROM.1>  (73) 
118.08968123,162.42167253,-59.96562577,-112.25121394,78.72234975,14.34890762
11.27223424,5.77091082,-1.52135521,-0.88333434,0.00416540

>  <Name>  (73) 
7lng_h

>  <RI>  (73) 
8.5107e+06

>  <Rbt.Current_Directory>  (73) 
/home/jta30/NA_complexes/7lng

>  <Rbt.Executable>  (73) 
rbdock ($Id: //depot/dev/client3/rdock/2013.1/src/exe/rbdock.cxx#4 $)

>  <Rbt.Library>  (73) 
libRbt.so (2013.1, Build901 2013/11/27)

>  <Rbt.Parameter_File>  (73) 
/software/dev_tools/swtree/cs400_centos7.2_pe2016-08/rdock/2013.1/centos7.2_conda/build/data/scripts/dock.prm

>  <Rbt.Receptor>  (73) 
7lng.prm

>  <SCORE>  (73) 
-16.3101

>  <SCORE.INTER>  (73) 
-13.3558

>  <SCORE.INTER.CONST>  (73) 
1

>  <SCORE.INTER.POLAR>  (73) 
-1.81077

>  <SCORE.INTER.REPUL>  (73) 
0

>  <SCORE.INTER.ROT>  (73) 
4

>  <SCORE.INTER.VDW>  (73) 
-16.5991

>  <SCORE.INTER.norm>  (73) 
-0.635988

>  <SCORE.INTRA>  (73) 
-2.92866

>  <SCORE.INTRA.DIHEDRAL>  (73) 
-5.30978

>  <SCORE.INTRA.DIHEDRAL.0>  (73) 
10.6104

>  <SCORE.INTRA.POLAR>  (73) 
0

>  <SCORE.INTRA.POLAR.0>  (73) 
0

>  <SCORE.INTRA.REPUL>  (73) 
0

>  <SCORE.INTRA.REPUL.0>  (73) 
0

>  <SCORE.INTRA.VDW>  (73) 
-0.273776

>  <SCORE.INTRA.VDW.0>  (73) 
-1.96818

>  <SCORE.INTRA.norm>  (73) 
-0.13946

>  <SCORE.RESTR>  (73) 
0

>  <SCORE.RESTR.CAVITY>  (73) 
0

>  <SCORE.RESTR.norm>  (73) 
0

>  <SCORE.SYSTEM>  (73) 
-0.0256503

>  <SCORE.SYSTEM.CONST>  (73) 
0

>  <SCORE.SYSTEM.DIHEDRAL>  (73) 
0.281625

>  <SCORE.SYSTEM.VDW>  (73) 
-0.166463

>  <SCORE.SYSTEM.norm>  (73) 
-0.00122144

>  <SCORE.heavy>  (73) 
21

>  <SCORE.norm>  (73) 
-0.77667

>  <Predicted_Rank>  (73) 
73.0

$$$$
7lng_h
     RDKit          3D

 24 26  0  0  0  0  0  0  0  0999 V2000
   14.4645    6.6995    5.5673 P   0  0  1  0  0  0  0  0  0  0  0  0
   14.9239    6.6845    6.9773 O   0  0  0  0  0  0  0  0  0  0  0  0
   13.0177    6.6905    5.2323 O   0  0  0  0  0  0  0  0  0  0  0  0
   14.0515    9.8824    5.9851 C   0  0  0  0  0  0  0  0  0  0  0  0
   15.3675   10.3663    6.2797 O   0  0  0  0  0  0  0  0  0  0  0  0
   14.2966    9.2422    4.6240 C   0  0  2  0  0  0  0  0  0  0  0  0
   15.0550    8.0068    4.8138 O   0  0  0  0  0  0  0  0  0  0  0  0
   15.1717   10.2148    3.8981 C   0  0  1  0  0  0  0  0  0  0  0  0
   14.4473   11.3432    3.3233 O   0  0  0  0  0  0  0  0  0  0  0  0
   16.0780   10.6606    5.0370 C   0  0  2  0  0  0  0  0  0  0  0  0
   20.4625    9.9356    7.4661 N   0  0  0  0  0  0  0  0  0  0  0  0
   19.2838   10.6174    7.8655 C   0  0  0  0  0  0  0  0  0  0  0  0
   19.2074   11.2138    9.0643 N   0  0  0  0  0  0  0  0  0  0  0  0
   18.2374   10.6544    7.0106 N   0  0  0  0  0  0  0  0  0  0  0  0
   18.3208   10.0564    5.8063 C   0  0  0  0  0  0  0  0  0  0  0  0
   19.4245    9.3886    5.3976 C   0  0  0  0  0  0  0  0  0  0  0  0
   20.5018    9.3134    6.1889 C   0  0  0  0  0  0  0  0  0  0  0  0
   21.5234    8.7102    5.8320 O   0  0  0  0  0  0  0  0  0  0  0  0
   19.1909    8.9192    4.1693 N   0  0  0  0  0  0  0  0  0  0  0  0
   17.9593    9.2782    3.8220 C   0  0  0  0  0  0  0  0  0  0  0  0
   17.4112    9.9736    4.8423 N   0  0  0  0  0  0  0  0  0  0  0  0
   15.0683   11.9398    2.8987 H   0  0  0  0  0  0  0  0  0  0  0  0
   18.5734   10.8587    9.7657 H   0  0  0  0  0  0  0  0  0  0  0  0
   19.7841   12.0182    9.2655 H   0  0  0  0  0  0  0  0  0  0  0  0
  1  2  1  1
  1  3  2  0
  1  7  1  0
  4  5  1  0
  4  6  1  0
  5 10  1  0
  6  7  1  1
  6  8  1  0
  8  9  1  1
  8 10  1  0
  9 22  1  0
 10 21  1  1
 11 12  1  0
 11 17  1  0
 12 13  1  0
 12 14  2  0
 13 23  1  0
 13 24  1  0
 14 15  1  0
 15 16  2  0
 15 21  1  0
 16 17  1  0
 16 19  1  0
 17 18  2  0
 19 20  2  0
 20 21  1  0
M  CHG  1   2  -1
M  END
>  <CHROM.0>  (74) 
-179.35665186

>  <CHROM.1>  (74) 
-97.77521323,66.59495807,178.19965873,-51.60159885,-113.08684596,16.83427586
9.24936737,5.68252331,-2.98646923,-0.36154215,-0.41886367

>  <Name>  (74) 
7lng_h

>  <RI>  (74) 
8.5107e+06

>  <Rbt.Current_Directory>  (74) 
/home/jta30/NA_complexes/7lng

>  <Rbt.Executable>  (74) 
rbdock ($Id: //depot/dev/client3/rdock/2013.1/src/exe/rbdock.cxx#4 $)

>  <Rbt.Library>  (74) 
libRbt.so (2013.1, Build901 2013/11/27)

>  <Rbt.Parameter_File>  (74) 
/software/dev_tools/swtree/cs400_centos7.2_pe2016-08/rdock/2013.1/centos7.2_conda/build/data/scripts/dock.prm

>  <Rbt.Receptor>  (74) 
7lng.prm

>  <SCORE>  (74) 
-13.4731

>  <SCORE.INTER>  (74) 
-9.78514

>  <SCORE.INTER.CONST>  (74) 
1

>  <SCORE.INTER.POLAR>  (74) 
-2.53375

>  <SCORE.INTER.REPUL>  (74) 
4.59244e-05

>  <SCORE.INTER.ROT>  (74) 
4

>  <SCORE.INTER.VDW>  (74) 
-10.5706

>  <SCORE.INTER.norm>  (74) 
-0.465959

>  <SCORE.INTRA>  (74) 
-3.64593

>  <SCORE.INTRA.DIHEDRAL>  (74) 
-7.20541

>  <SCORE.INTRA.DIHEDRAL.0>  (74) 
10.6104

>  <SCORE.INTRA.POLAR>  (74) 
0

>  <SCORE.INTRA.POLAR.0>  (74) 
0

>  <SCORE.INTRA.REPUL>  (74) 
0

>  <SCORE.INTRA.REPUL.0>  (74) 
0

>  <SCORE.INTRA.VDW>  (74) 
-0.0432319

>  <SCORE.INTRA.VDW.0>  (74) 
-1.96818

>  <SCORE.INTRA.norm>  (74) 
-0.173616

>  <SCORE.RESTR>  (74) 
0

>  <SCORE.RESTR.CAVITY>  (74) 
0

>  <SCORE.RESTR.norm>  (74) 
0

>  <SCORE.SYSTEM>  (74) 
-0.0420152

>  <SCORE.SYSTEM.CONST>  (74) 
0

>  <SCORE.SYSTEM.DIHEDRAL>  (74) 
0.2716

>  <SCORE.SYSTEM.VDW>  (74) 
-0.177815

>  <SCORE.SYSTEM.norm>  (74) 
-0.00200072

>  <SCORE.heavy>  (74) 
21

>  <SCORE.norm>  (74) 
-0.641576

>  <Predicted_Rank>  (74) 
74.0

$$$$
7lng_h
     RDKit          3D

 24 26  0  0  0  0  0  0  0  0999 V2000
   15.2800    8.3975    6.7572 P   0  0  1  0  0  0  0  0  0  0  0  0
   14.2759    8.8973    5.7869 O   0  0  0  0  0  0  0  0  0  0  0  0
   15.1168    7.0774    7.4178 O   0  0  0  0  0  0  0  0  0  0  0  0
   19.1487    8.4032    5.7830 C   0  0  0  0  0  0  0  0  0  0  0  0
   18.9920    9.5543    4.9444 O   0  0  0  0  0  0  0  0  0  0  0  0
   17.9887    8.6120    6.7492 C   0  0  2  0  0  0  0  0  0  0  0  0
   16.7363    8.3286    6.0502 O   0  0  0  0  0  0  0  0  0  0  0  0
   18.0188   10.0732    7.0696 C   0  0  1  0  0  0  0  0  0  0  0  0
   19.0178   10.4362    8.0690 O   0  0  0  0  0  0  0  0  0  0  0  0
   18.3723   10.6397    5.7017 C   0  0  2  0  0  0  0  0  0  0  0  0
   14.5626   13.7057    7.0191 N   0  0  0  0  0  0  0  0  0  0  0  0
   15.7120   13.2930    7.7418 C   0  0  0  0  0  0  0  0  0  0  0  0
   15.9250   13.7183    8.9958 N   0  0  0  0  0  0  0  0  0  0  0  0
   16.5895   12.4596    7.1396 N   0  0  0  0  0  0  0  0  0  0  0  0
   16.3688   12.0328    5.8809 C   0  0  0  0  0  0  0  0  0  0  0  0
   15.2899   12.4149    5.1590 C   0  0  0  0  0  0  0  0  0  0  0  0
   14.3755   13.2353    5.6910 C   0  0  0  0  0  0  0  0  0  0  0  0
   13.3789   13.5939    5.0483 O   0  0  0  0  0  0  0  0  0  0  0  0
   15.3621   11.8216    3.9646 N   0  0  0  0  0  0  0  0  0  0  0  0
   16.4721   11.0911    3.9377 C   0  0  0  0  0  0  0  0  0  0  0  0
   17.1066   11.2308    5.1221 N   0  0  0  0  0  0  0  0  0  0  0  0
   18.7919   10.0312    8.9096 H   0  0  0  0  0  0  0  0  0  0  0  0
   15.1517   13.7983    9.6403 H   0  0  0  0  0  0  0  0  0  0  0  0
   16.8592   13.9585    9.2953 H   0  0  0  0  0  0  0  0  0  0  0  0
  1  2  1  6
  1  3  2  0
  1  7  1  0
  4  5  1  0
  4  6  1  0
  5 10  1  0
  6  7  1  6
  6  8  1  0
  8  9  1  1
  8 10  1  0
  9 22  1  0
 10 21  1  6
 11 12  1  0
 11 17  1  0
 12 13  1  0
 12 14  2  0
 13 23  1  0
 13 24  1  0
 14 15  1  0
 15 16  2  0
 15 21  1  0
 16 17  1  0
 16 19  1  0
 17 18  2  0
 19 20  2  0
 20 21  1  0
M  CHG  1   2  -1
M  END
>  <CHROM.0>  (75) 
-177.92350150

>  <CHROM.1>  (75) 
144.80225408,178.14946023,-65.05774030,167.39623394,39.38810374,16.33294863
10.70044852,6.26661039,1.07043938,0.23663259,-3.03322163

>  <Name>  (75) 
7lng_h

>  <RI>  (75) 
8.5107e+06

>  <Rbt.Current_Directory>  (75) 
/home/jta30/NA_complexes/7lng

>  <Rbt.Executable>  (75) 
rbdock ($Id: //depot/dev/client3/rdock/2013.1/src/exe/rbdock.cxx#4 $)

>  <Rbt.Library>  (75) 
libRbt.so (2013.1, Build901 2013/11/27)

>  <Rbt.Parameter_File>  (75) 
/software/dev_tools/swtree/cs400_centos7.2_pe2016-08/rdock/2013.1/centos7.2_conda/build/data/scripts/dock.prm

>  <Rbt.Receptor>  (75) 
7lng.prm

>  <SCORE>  (75) 
-19.7871

>  <SCORE.INTER>  (75) 
-15.45

>  <SCORE.INTER.CONST>  (75) 
1

>  <SCORE.INTER.POLAR>  (75) 
-2.97956

>  <SCORE.INTER.REPUL>  (75) 
0

>  <SCORE.INTER.ROT>  (75) 
4

>  <SCORE.INTER.VDW>  (75) 
-14.7195

>  <SCORE.INTER.norm>  (75) 
-0.735712

>  <SCORE.INTRA>  (75) 
-4.2922

>  <SCORE.INTRA.DIHEDRAL>  (75) 
-7.29667

>  <SCORE.INTRA.DIHEDRAL.0>  (75) 
10.6104

>  <SCORE.INTRA.POLAR>  (75) 
0

>  <SCORE.INTRA.POLAR.0>  (75) 
0

>  <SCORE.INTRA.REPUL>  (75) 
0

>  <SCORE.INTRA.REPUL.0>  (75) 
0

>  <SCORE.INTRA.VDW>  (75) 
-0.643858

>  <SCORE.INTRA.VDW.0>  (75) 
-1.96818

>  <SCORE.INTRA.norm>  (75) 
-0.20439

>  <SCORE.RESTR>  (75) 
0

>  <SCORE.RESTR.CAVITY>  (75) 
0

>  <SCORE.RESTR.norm>  (75) 
0

>  <SCORE.SYSTEM>  (75) 
-0.0449459

>  <SCORE.SYSTEM.CONST>  (75) 
0

>  <SCORE.SYSTEM.DIHEDRAL>  (75) 
0.289376

>  <SCORE.SYSTEM.VDW>  (75) 
-0.189634

>  <SCORE.SYSTEM.norm>  (75) 
-0.00214028

>  <SCORE.heavy>  (75) 
21

>  <SCORE.norm>  (75) 
-0.942243

>  <Predicted_Rank>  (75) 
75.0

$$$$
7lng_h
     RDKit          3D

 24 26  0  0  0  0  0  0  0  0999 V2000
   14.6809    6.0716    5.3229 P   0  0  1  0  0  0  0  0  0  0  0  0
   15.2874    5.0118    4.4812 O   0  0  0  0  0  0  0  0  0  0  0  0
   14.7950    6.0339    6.8032 O   0  0  0  0  0  0  0  0  0  0  0  0
   13.2314    8.8084    5.0734 C   0  0  0  0  0  0  0  0  0  0  0  0
   13.7945    9.4965    6.1969 O   0  0  0  0  0  0  0  0  0  0  0  0
   14.4893    8.5604    4.2494 C   0  0  2  0  0  0  0  0  0  0  0  0
   15.2799    7.5161    4.8989 O   0  0  0  0  0  0  0  0  0  0  0  0
   15.2578    9.8415    4.3333 C   0  0  1  0  0  0  0  0  0  0  0  0
   14.7750   10.8780    3.4270 O   0  0  0  0  0  0  0  0  0  0  0  0
   15.0005   10.2129    5.7869 C   0  0  2  0  0  0  0  0  0  0  0  0
   18.8524   12.6027    8.0455 N   0  0  0  0  0  0  0  0  0  0  0  0
   17.7080   13.1132    7.3797 C   0  0  0  0  0  0  0  0  0  0  0  0
   17.5135   14.4350    7.2623 N   0  0  0  0  0  0  0  0  0  0  0  0
   16.8162   12.2381    6.8639 N   0  0  0  0  0  0  0  0  0  0  0  0
   17.0182   10.9113    6.9818 C   0  0  0  0  0  0  0  0  0  0  0  0
   18.0920   10.3901    7.6195 C   0  0  0  0  0  0  0  0  0  0  0  0
   19.0197   11.1953    8.1517 C   0  0  0  0  0  0  0  0  0  0  0  0
   20.0119   10.7382    8.7362 O   0  0  0  0  0  0  0  0  0  0  0  0
   18.0005    9.0590    7.5601 N   0  0  0  0  0  0  0  0  0  0  0  0
   16.8839    8.7550    6.9066 C   0  0  0  0  0  0  0  0  0  0  0  0
   16.2645    9.9036    6.5576 N   0  0  0  0  0  0  0  0  0  0  0  0
   13.8580   11.0783    3.6291 H   0  0  0  0  0  0  0  0  0  0  0  0
   18.0373   14.9641    6.5801 H   0  0  0  0  0  0  0  0  0  0  0  0
   16.8427   14.9010    7.8565 H   0  0  0  0  0  0  0  0  0  0  0  0
  1  2  1  6
  1  3  2  0
  1  7  1  0
  4  5  1  0
  4  6  1  0
  5 10  1  0
  6  7  1  1
  6  8  1  0
  8  9  1  6
  8 10  1  0
  9 22  1  0
 10 21  1  1
 11 12  1  0
 11 17  1  0
 12 13  1  0
 12 14  2  0
 13 23  1  0
 13 24  1  0
 14 15  1  0
 15 16  2  0
 15 21  1  0
 16 17  1  0
 16 19  1  0
 17 18  2  0
 19 20  2  0
 20 21  1  0
M  CHG  1   2  -1
M  END
>  <CHROM.0>  (76) 
-178.87139495

>  <CHROM.1>  (76) 
111.92661626,52.51903163,59.74048636,-133.08309378,76.84190157,16.17522345
9.54408799,6.21768631,-2.30318851,-0.67734373,-0.06226429

>  <Name>  (76) 
7lng_h

>  <RI>  (76) 
8.5107e+06

>  <Rbt.Current_Directory>  (76) 
/home/jta30/NA_complexes/7lng

>  <Rbt.Executable>  (76) 
rbdock ($Id: //depot/dev/client3/rdock/2013.1/src/exe/rbdock.cxx#4 $)

>  <Rbt.Library>  (76) 
libRbt.so (2013.1, Build901 2013/11/27)

>  <Rbt.Parameter_File>  (76) 
/software/dev_tools/swtree/cs400_centos7.2_pe2016-08/rdock/2013.1/centos7.2_conda/build/data/scripts/dock.prm

>  <Rbt.Receptor>  (76) 
7lng.prm

>  <SCORE>  (76) 
-14.143

>  <SCORE.INTER>  (76) 
-10.8852

>  <SCORE.INTER.CONST>  (76) 
1

>  <SCORE.INTER.POLAR>  (76) 
-2.08245

>  <SCORE.INTER.REPUL>  (76) 
0.0835775

>  <SCORE.INTER.ROT>  (76) 
4

>  <SCORE.INTER.VDW>  (76) 
-13.6228

>  <SCORE.INTER.norm>  (76) 
-0.518345

>  <SCORE.INTRA>  (76) 
-3.21358

>  <SCORE.INTRA.DIHEDRAL>  (76) 
-6.49361

>  <SCORE.INTRA.DIHEDRAL.0>  (76) 
10.6104

>  <SCORE.INTRA.POLAR>  (76) 
0

>  <SCORE.INTRA.POLAR.0>  (76) 
0

>  <SCORE.INTRA.REPUL>  (76) 
0

>  <SCORE.INTRA.REPUL.0>  (76) 
0

>  <SCORE.INTRA.VDW>  (76) 
0.0332279

>  <SCORE.INTRA.VDW.0>  (76) 
-1.96818

>  <SCORE.INTRA.norm>  (76) 
-0.153028

>  <SCORE.RESTR>  (76) 
0

>  <SCORE.RESTR.CAVITY>  (76) 
0

>  <SCORE.RESTR.norm>  (76) 
0

>  <SCORE.SYSTEM>  (76) 
-0.0441617

>  <SCORE.SYSTEM.CONST>  (76) 
0

>  <SCORE.SYSTEM.DIHEDRAL>  (76) 
0.275524

>  <SCORE.SYSTEM.VDW>  (76) 
-0.181924

>  <SCORE.SYSTEM.norm>  (76) 
-0.00210294

>  <SCORE.heavy>  (76) 
21

>  <SCORE.norm>  (76) 
-0.673475

>  <Predicted_Rank>  (76) 
76.0

$$$$
7lng_h
     RDKit          3D

 24 26  0  0  0  0  0  0  0  0999 V2000
   15.7012    8.4104    6.7535 P   0  0  1  0  0  0  0  0  0  0  0  0
   16.7602    9.2011    7.4266 O   0  0  0  0  0  0  0  0  0  0  0  0
   15.1064    7.2153    7.4042 O   0  0  0  0  0  0  0  0  0  0  0  0
   12.4231   10.1859    5.3333 C   0  0  0  0  0  0  0  0  0  0  0  0
   13.1661   11.3197    4.8695 O   0  0  0  0  0  0  0  0  0  0  0  0
   13.5121    9.1198    5.3086 C   0  0  2  0  0  0  0  0  0  0  0  0
   14.4385    9.3667    6.4124 O   0  0  0  0  0  0  0  0  0  0  0  0
   14.2469    9.3563    4.0268 C   0  0  1  0  0  0  0  0  0  0  0  0
   13.5753    8.8077    2.8535 O   0  0  0  0  0  0  0  0  0  0  0  0
   14.2545   10.8782    3.9998 C   0  0  2  0  0  0  0  0  0  0  0  0
   16.6455   13.4239    7.6676 N   0  0  0  0  0  0  0  0  0  0  0  0
   15.2767   13.0806    7.5189 C   0  0  0  0  0  0  0  0  0  0  0  0
   14.3725   13.4452    8.4400 N   0  0  0  0  0  0  0  0  0  0  0  0
   14.9014   12.3776    6.4270 N   0  0  0  0  0  0  0  0  0  0  0  0
   15.8133   12.0167    5.5033 C   0  0  0  0  0  0  0  0  0  0  0  0
   17.1277   12.3175    5.6185 C   0  0  0  0  0  0  0  0  0  0  0  0
   17.5726   13.0152    6.6709 C   0  0  0  0  0  0  0  0  0  0  0  0
   18.7712   13.3040    6.7931 O   0  0  0  0  0  0  0  0  0  0  0  0
   17.7581   11.8260    4.5486 N   0  0  0  0  0  0  0  0  0  0  0  0
   16.8551   11.2198    3.7848 C   0  0  0  0  0  0  0  0  0  0  0  0
   15.6479   11.3251    4.3819 N   0  0  0  0  0  0  0  0  0  0  0  0
   13.4741    7.8586    2.9569 H   0  0  0  0  0  0  0  0  0  0  0  0
   14.3744   14.3869    8.8046 H   0  0  0  0  0  0  0  0  0  0  0  0
   13.6896   12.7775    8.7687 H   0  0  0  0  0  0  0  0  0  0  0  0
  1  2  1  1
  1  3  2  0
  1  7  1  0
  4  5  1  0
  4  6  1  0
  5 10  1  0
  6  7  1  1
  6  8  1  0
  8  9  1  6
  8 10  1  0
  9 22  1  0
 10 21  1  1
 11 12  1  0
 11 17  1  0
 12 13  1  0
 12 14  2  0
 13 23  1  0
 13 24  1  0
 14 15  1  0
 15 16  2  0
 15 21  1  0
 16 17  1  0
 16 19  1  0
 17 18  2  0
 19 20  2  0
 20 21  1  0
M  CHG  1   2  -1
M  END
>  <CHROM.0>  (77) 
61.30934965

>  <CHROM.1>  (77) 
152.95167187,177.54942173,-59.72679507,3.63075135,45.44275098,15.39818658
10.80160118,5.87746875,-2.56200868,-0.86684366,-0.46280044

>  <Name>  (77) 
7lng_h

>  <RI>  (77) 
8.5107e+06

>  <Rbt.Current_Directory>  (77) 
/home/jta30/NA_complexes/7lng

>  <Rbt.Executable>  (77) 
rbdock ($Id: //depot/dev/client3/rdock/2013.1/src/exe/rbdock.cxx#4 $)

>  <Rbt.Library>  (77) 
libRbt.so (2013.1, Build901 2013/11/27)

>  <Rbt.Parameter_File>  (77) 
/software/dev_tools/swtree/cs400_centos7.2_pe2016-08/rdock/2013.1/centos7.2_conda/build/data/scripts/dock.prm

>  <Rbt.Receptor>  (77) 
7lng.prm

>  <SCORE>  (77) 
-17.7015

>  <SCORE.INTER>  (77) 
-12.9299

>  <SCORE.INTER.CONST>  (77) 
1

>  <SCORE.INTER.POLAR>  (77) 
-2.61119

>  <SCORE.INTER.REPUL>  (77) 
0

>  <SCORE.INTER.ROT>  (77) 
4

>  <SCORE.INTER.VDW>  (77) 
-13.4519

>  <SCORE.INTER.norm>  (77) 
-0.61571

>  <SCORE.INTRA>  (77) 
-5.36576

>  <SCORE.INTRA.DIHEDRAL>  (77) 
-7.7436

>  <SCORE.INTRA.DIHEDRAL.0>  (77) 
10.6104

>  <SCORE.INTRA.POLAR>  (77) 
0

>  <SCORE.INTRA.POLAR.0>  (77) 
0

>  <SCORE.INTRA.REPUL>  (77) 
0

>  <SCORE.INTRA.REPUL.0>  (77) 
0

>  <SCORE.INTRA.VDW>  (77) 
-1.49396

>  <SCORE.INTRA.VDW.0>  (77) 
-1.96818

>  <SCORE.INTRA.norm>  (77) 
-0.255512

>  <SCORE.RESTR>  (77) 
0

>  <SCORE.RESTR.CAVITY>  (77) 
0

>  <SCORE.RESTR.norm>  (77) 
0

>  <SCORE.SYSTEM>  (77) 
0.594184

>  <SCORE.SYSTEM.CONST>  (77) 
0

>  <SCORE.SYSTEM.DIHEDRAL>  (77) 
0.277534

>  <SCORE.SYSTEM.VDW>  (77) 
0.455417

>  <SCORE.SYSTEM.norm>  (77) 
0.0282945

>  <SCORE.heavy>  (77) 
21

>  <SCORE.norm>  (77) 
-0.842928

>  <Predicted_Rank>  (77) 
77.0

$$$$
7lng_h
     RDKit          3D

 24 26  0  0  0  0  0  0  0  0999 V2000
   11.5383    8.8000    4.6021 P   0  0  1  0  0  0  0  0  0  0  0  0
   11.8821    9.1046    3.1920 O   0  0  0  0  0  0  0  0  0  0  0  0
   10.9279    7.4995    4.9785 O   0  0  0  0  0  0  0  0  0  0  0  0
   14.4895    7.5916    4.3007 C   0  0  0  0  0  0  0  0  0  0  0  0
   15.3096    8.7602    4.1800 O   0  0  0  0  0  0  0  0  0  0  0  0
   13.8521    7.8472    5.6612 C   0  0  2  0  0  0  0  0  0  0  0  0
   12.8645    8.9167    5.5256 O   0  0  0  0  0  0  0  0  0  0  0  0
   14.9701    8.3563    6.5155 C   0  0  1  0  0  0  0  0  0  0  0  0
   15.8399    7.3059    7.0340 O   0  0  0  0  0  0  0  0  0  0  0  0
   15.6999    9.2322    5.5068 C   0  0  2  0  0  0  0  0  0  0  0  0
   17.4692   13.0939    8.2648 N   0  0  0  0  0  0  0  0  0  0  0  0
   17.9818   11.7856    8.0666 C   0  0  0  0  0  0  0  0  0  0  0  0
   19.1154   11.3932    8.6663 N   0  0  0  0  0  0  0  0  0  0  0  0
   17.3020   10.9403    7.2599 N   0  0  0  0  0  0  0  0  0  0  0  0
   16.1620   11.3386    6.6627 C   0  0  0  0  0  0  0  0  0  0  0  0
   15.6508   12.5816    6.8205 C   0  0  0  0  0  0  0  0  0  0  0  0
   16.2668   13.4719    7.6080 C   0  0  0  0  0  0  0  0  0  0  0  0
   15.8132   14.6135    7.7688 O   0  0  0  0  0  0  0  0  0  0  0  0
   14.5246   12.6577    6.1065 N   0  0  0  0  0  0  0  0  0  0  0  0
   14.3422   11.4867    5.5051 C   0  0  0  0  0  0  0  0  0  0  0  0
   15.3649   10.6693    5.8380 N   0  0  0  0  0  0  0  0  0  0  0  0
   16.5668    7.7027    7.5199 H   0  0  0  0  0  0  0  0  0  0  0  0
   20.0032   11.7659    8.3615 H   0  0  0  0  0  0  0  0  0  0  0  0
   19.0810   10.7250    9.4228 H   0  0  0  0  0  0  0  0  0  0  0  0
  1  2  1  6
  1  3  2  0
  1  7  1  0
  4  5  1  0
  4  6  1  0
  5 10  1  0
  6  7  1  6
  6  8  1  0
  8  9  1  6
  8 10  1  0
  9 22  1  0
 10 21  1  6
 11 12  1  0
 11 17  1  0
 12 13  1  0
 12 14  2  0
 13 23  1  0
 13 24  1  0
 14 15  1  0
 15 16  2  0
 15 21  1  0
 16 17  1  0
 16 19  1  0
 17 18  2  0
 19 20  2  0
 20 21  1  0
M  CHG  1   2  -1
M  END
>  <CHROM.0>  (78) 
-60.14534916

>  <CHROM.1>  (78) 
-82.32902504,63.09640187,176.09222503,-148.95745082,-71.41133933,14.87277337
10.19075559,6.07955647,2.41209216,0.46663799,-2.96914200

>  <Name>  (78) 
7lng_h

>  <RI>  (78) 
8.5107e+06

>  <Rbt.Current_Directory>  (78) 
/home/jta30/NA_complexes/7lng

>  <Rbt.Executable>  (78) 
rbdock ($Id: //depot/dev/client3/rdock/2013.1/src/exe/rbdock.cxx#4 $)

>  <Rbt.Library>  (78) 
libRbt.so (2013.1, Build901 2013/11/27)

>  <Rbt.Parameter_File>  (78) 
/software/dev_tools/swtree/cs400_centos7.2_pe2016-08/rdock/2013.1/centos7.2_conda/build/data/scripts/dock.prm

>  <Rbt.Receptor>  (78) 
7lng.prm

>  <SCORE>  (78) 
-15.4346

>  <SCORE.INTER>  (78) 
-11.0484

>  <SCORE.INTER.CONST>  (78) 
1

>  <SCORE.INTER.POLAR>  (78) 
-1.59137

>  <SCORE.INTER.REPUL>  (78) 
0.00557221

>  <SCORE.INTER.ROT>  (78) 
4

>  <SCORE.INTER.VDW>  (78) 
-15.0656

>  <SCORE.INTER.norm>  (78) 
-0.526113

>  <SCORE.INTRA>  (78) 
-4.36479

>  <SCORE.INTRA.DIHEDRAL>  (78) 
-7.92869

>  <SCORE.INTRA.DIHEDRAL.0>  (78) 
10.6104

>  <SCORE.INTRA.POLAR>  (78) 
0

>  <SCORE.INTRA.POLAR.0>  (78) 
0

>  <SCORE.INTRA.REPUL>  (78) 
0

>  <SCORE.INTRA.REPUL.0>  (78) 
0

>  <SCORE.INTRA.VDW>  (78) 
-0.400441

>  <SCORE.INTRA.VDW.0>  (78) 
-1.96818

>  <SCORE.INTRA.norm>  (78) 
-0.207847

>  <SCORE.RESTR>  (78) 
0

>  <SCORE.RESTR.CAVITY>  (78) 
0

>  <SCORE.RESTR.norm>  (78) 
0

>  <SCORE.SYSTEM>  (78) 
-0.0214425

>  <SCORE.SYSTEM.CONST>  (78) 
0

>  <SCORE.SYSTEM.DIHEDRAL>  (78) 
0.269808

>  <SCORE.SYSTEM.VDW>  (78) 
-0.156346

>  <SCORE.SYSTEM.norm>  (78) 
-0.00102107

>  <SCORE.heavy>  (78) 
21

>  <SCORE.norm>  (78) 
-0.734981

>  <Predicted_Rank>  (78) 
78.0

$$$$
7lng_h
     RDKit          3D

 24 26  0  0  0  0  0  0  0  0999 V2000
   14.9194   15.7360    4.7995 P   0  0  1  0  0  0  0  0  0  0  0  0
   16.1099   16.5572    4.4710 O   0  0  0  0  0  0  0  0  0  0  0  0
   13.8053   15.5791    3.8301 O   0  0  0  0  0  0  0  0  0  0  0  0
   15.4880   14.2955    7.5742 C   0  0  0  0  0  0  0  0  0  0  0  0
   14.4586   13.3002    7.6224 O   0  0  0  0  0  0  0  0  0  0  0  0
   16.2115   13.8756    6.3003 C   0  0  2  0  0  0  0  0  0  0  0  0
   15.3791   14.2223    5.1494 O   0  0  0  0  0  0  0  0  0  0  0  0
   16.2896   12.3835    6.3814 C   0  0  1  0  0  0  0  0  0  0  0  0
   17.3614   11.8962    7.2430 O   0  0  0  0  0  0  0  0  0  0  0  0
   14.9208   12.0759    6.9720 C   0  0  2  0  0  0  0  0  0  0  0  0
   13.4264    7.6601    4.9927 N   0  0  0  0  0  0  0  0  0  0  0  0
   14.2479    7.9416    6.1150 C   0  0  0  0  0  0  0  0  0  0  0  0
   14.7785    6.9493    6.8448 N   0  0  0  0  0  0  0  0  0  0  0  0
   14.4862    9.2334    6.4339 N   0  0  0  0  0  0  0  0  0  0  0  0
   13.9534   10.2262    5.6954 C   0  0  0  0  0  0  0  0  0  0  0  0
   13.1571    9.9943    4.6261 C   0  0  0  0  0  0  0  0  0  0  0  0
   12.8803    8.7403    4.2478 C   0  0  0  0  0  0  0  0  0  0  0  0
   12.1567    8.5065    3.2697 O   0  0  0  0  0  0  0  0  0  0  0  0
   12.7987   11.1751    4.1153 N   0  0  0  0  0  0  0  0  0  0  0  0
   13.3525   12.1271    4.8592 C   0  0  0  0  0  0  0  0  0  0  0  0
   14.0597   11.5409    5.8497 N   0  0  0  0  0  0  0  0  0  0  0  0
   17.3522   10.9362    7.2539 H   0  0  0  0  0  0  0  0  0  0  0  0
   15.3828    7.1635    7.6251 H   0  0  0  0  0  0  0  0  0  0  0  0
   14.5733    5.9877    6.6139 H   0  0  0  0  0  0  0  0  0  0  0  0
  1  2  1  6
  1  3  2  0
  1  7  1  0
  4  5  1  0
  4  6  1  0
  5 10  1  0
  6  7  1  6
  6  8  1  0
  8  9  1  1
  8 10  1  0
  9 22  1  0
 10 21  1  6
 11 12  1  0
 11 17  1  0
 12 13  1  0
 12 14  2  0
 13 23  1  0
 13 24  1  0
 14 15  1  0
 15 16  2  0
 15 21  1  0
 16 17  1  0
 16 19  1  0
 17 18  2  0
 19 20  2  0
 20 21  1  0
M  CHG  1   2  -1
M  END
>  <CHROM.0>  (79) 
-61.81493834

>  <CHROM.1>  (79) 
64.47605067,60.36574811,179.69645655,-144.79197605,178.24698331,14.55682087
11.92098533,5.55644134,1.20457494,-0.83908338,-0.27766719

>  <Name>  (79) 
7lng_h

>  <RI>  (79) 
8.5107e+06

>  <Rbt.Current_Directory>  (79) 
/home/jta30/NA_complexes/7lng

>  <Rbt.Executable>  (79) 
rbdock ($Id: //depot/dev/client3/rdock/2013.1/src/exe/rbdock.cxx#4 $)

>  <Rbt.Library>  (79) 
libRbt.so (2013.1, Build901 2013/11/27)

>  <Rbt.Parameter_File>  (79) 
/software/dev_tools/swtree/cs400_centos7.2_pe2016-08/rdock/2013.1/centos7.2_conda/build/data/scripts/dock.prm

>  <Rbt.Receptor>  (79) 
7lng.prm

>  <SCORE>  (79) 
-9.46405

>  <SCORE.INTER>  (79) 
-5.04187

>  <SCORE.INTER.CONST>  (79) 
1

>  <SCORE.INTER.POLAR>  (79) 
-1.02026

>  <SCORE.INTER.REPUL>  (79) 
0.0729348

>  <SCORE.INTER.ROT>  (79) 
4

>  <SCORE.INTER.VDW>  (79) 
-11.3377

>  <SCORE.INTER.norm>  (79) 
-0.240089

>  <SCORE.INTRA>  (79) 
-4.39677

>  <SCORE.INTRA.DIHEDRAL>  (79) 
-8.20455

>  <SCORE.INTRA.DIHEDRAL.0>  (79) 
10.6104

>  <SCORE.INTRA.POLAR>  (79) 
0

>  <SCORE.INTRA.POLAR.0>  (79) 
0

>  <SCORE.INTRA.REPUL>  (79) 
0

>  <SCORE.INTRA.REPUL.0>  (79) 
0

>  <SCORE.INTRA.VDW>  (79) 
-0.294499

>  <SCORE.INTRA.VDW.0>  (79) 
-1.96818

>  <SCORE.INTRA.norm>  (79) 
-0.20937

>  <SCORE.RESTR>  (79) 
0

>  <SCORE.RESTR.CAVITY>  (79) 
0

>  <SCORE.RESTR.norm>  (79) 
0

>  <SCORE.SYSTEM>  (79) 
-0.0254082

>  <SCORE.SYSTEM.CONST>  (79) 
0

>  <SCORE.SYSTEM.DIHEDRAL>  (79) 
0.284737

>  <SCORE.SYSTEM.VDW>  (79) 
-0.167777

>  <SCORE.SYSTEM.norm>  (79) 
-0.00120991

>  <SCORE.heavy>  (79) 
21

>  <SCORE.norm>  (79) 
-0.450669

>  <Predicted_Rank>  (79) 
79.0

$$$$
7lng_h
     RDKit          3D

 24 26  0  0  0  0  0  0  0  0999 V2000
   14.8732   14.8997    5.3917 P   0  0  1  0  0  0  0  0  0  0  0  0
   14.9076   13.9566    4.2476 O   0  0  0  0  0  0  0  0  0  0  0  0
   13.5867   15.3007    6.0161 O   0  0  0  0  0  0  0  0  0  0  0  0
   17.7213   13.6520    7.8840 C   0  0  0  0  0  0  0  0  0  0  0  0
   17.1250   12.3649    8.0850 O   0  0  0  0  0  0  0  0  0  0  0  0
   17.1808   13.9878    6.4991 C   0  0  2  0  0  0  0  0  0  0  0  0
   15.7593   14.3098    6.6132 O   0  0  0  0  0  0  0  0  0  0  0  0
   17.3055   12.7145    5.7231 C   0  0  1  0  0  0  0  0  0  0  0  0
   18.6516   12.4605    5.2211 O   0  0  0  0  0  0  0  0  0  0  0  0
   16.9154   11.7080    6.7965 C   0  0  2  0  0  0  0  0  0  0  0  0
   14.3810    7.5145    5.5154 N   0  0  0  0  0  0  0  0  0  0  0  0
   15.7577    7.7162    5.7943 C   0  0  0  0  0  0  0  0  0  0  0  0
   16.6281    6.6978    5.7321 N   0  0  0  0  0  0  0  0  0  0  0  0
   16.1752    8.9589    6.1238 N   0  0  0  0  0  0  0  0  0  0  0  0
   15.2971    9.9790    6.1816 C   0  0  0  0  0  0  0  0  0  0  0  0
   13.9763    9.8205    5.9328 C   0  0  0  0  0  0  0  0  0  0  0  0
   13.4905    8.6193    5.5961 C   0  0  0  0  0  0  0  0  0  0  0  0
   12.2855    8.4538    5.3606 O   0  0  0  0  0  0  0  0  0  0  0  0
   13.3856   11.0105    6.0692 N   0  0  0  0  0  0  0  0  0  0  0  0
   14.3191   11.8937    6.4079 C   0  0  0  0  0  0  0  0  0  0  0  0
   15.5056   11.2533    6.4915 N   0  0  0  0  0  0  0  0  0  0  0  0
   18.9128   13.1714    4.6311 H   0  0  0  0  0  0  0  0  0  0  0  0
   16.4309    5.8998    5.1454 H   0  0  0  0  0  0  0  0  0  0  0  0
   17.4810    6.7292    6.2722 H   0  0  0  0  0  0  0  0  0  0  0  0
  1  2  1  6
  1  3  2  0
  1  7  1  0
  4  5  1  0
  4  6  1  0
  5 10  1  0
  6  7  1  1
  6  8  1  0
  8  9  1  1
  8 10  1  0
  9 22  1  0
 10 21  1  6
 11 12  1  0
 11 17  1  0
 12 13  1  0
 12 14  2  0
 13 23  1  0
 13 24  1  0
 14 15  1  0
 15 16  2  0
 15 21  1  0
 16 17  1  0
 16 19  1  0
 17 18  2  0
 19 20  2  0
 20 21  1  0
M  CHG  1   2  -1
M  END
>  <CHROM.0>  (80) 
-66.29776698

>  <CHROM.1>  (80) 
58.53112981,171.95921984,-60.60983209,-124.53100407,25.27069489,15.48425724
11.56518578,6.03059371,1.38830567,-0.23766947,0.00907904

>  <Name>  (80) 
7lng_h

>  <RI>  (80) 
8.5107e+06

>  <Rbt.Current_Directory>  (80) 
/home/jta30/NA_complexes/7lng

>  <Rbt.Executable>  (80) 
rbdock ($Id: //depot/dev/client3/rdock/2013.1/src/exe/rbdock.cxx#4 $)

>  <Rbt.Library>  (80) 
libRbt.so (2013.1, Build901 2013/11/27)

>  <Rbt.Parameter_File>  (80) 
/software/dev_tools/swtree/cs400_centos7.2_pe2016-08/rdock/2013.1/centos7.2_conda/build/data/scripts/dock.prm

>  <Rbt.Receptor>  (80) 
7lng.prm

>  <SCORE>  (80) 
-14.3236

>  <SCORE.INTER>  (80) 
-9.47245

>  <SCORE.INTER.CONST>  (80) 
1

>  <SCORE.INTER.POLAR>  (80) 
-2.24274

>  <SCORE.INTER.REPUL>  (80) 
0.130262

>  <SCORE.INTER.ROT>  (80) 
4

>  <SCORE.INTER.VDW>  (80) 
-11.8984

>  <SCORE.INTER.norm>  (80) 
-0.451069

>  <SCORE.INTRA>  (80) 
-4.88159

>  <SCORE.INTRA.DIHEDRAL>  (80) 
-7.91903

>  <SCORE.INTRA.DIHEDRAL.0>  (80) 
10.6104

>  <SCORE.INTRA.POLAR>  (80) 
0

>  <SCORE.INTRA.POLAR.0>  (80) 
0

>  <SCORE.INTRA.REPUL>  (80) 
0

>  <SCORE.INTRA.REPUL.0>  (80) 
0

>  <SCORE.INTRA.VDW>  (80) 
-0.922073

>  <SCORE.INTRA.VDW.0>  (80) 
-1.96818

>  <SCORE.INTRA.norm>  (80) 
-0.232456

>  <SCORE.RESTR>  (80) 
0

>  <SCORE.RESTR.CAVITY>  (80) 
0

>  <SCORE.RESTR.norm>  (80) 
0

>  <SCORE.SYSTEM>  (80) 
0.0304666

>  <SCORE.SYSTEM.CONST>  (80) 
0

>  <SCORE.SYSTEM.DIHEDRAL>  (80) 
0.449136

>  <SCORE.SYSTEM.VDW>  (80) 
-0.194102

>  <SCORE.SYSTEM.norm>  (80) 
0.00145079

>  <SCORE.heavy>  (80) 
21

>  <SCORE.norm>  (80) 
-0.682075

>  <Predicted_Rank>  (80) 
80.0

$$$$
7lng_h
     RDKit          3D

 24 26  0  0  0  0  0  0  0  0999 V2000
   15.2806    7.9249    6.5877 P   0  0  1  0  0  0  0  0  0  0  0  0
   14.1413    8.7549    6.1265 O   0  0  0  0  0  0  0  0  0  0  0  0
   15.0638    6.7405    7.4570 O   0  0  0  0  0  0  0  0  0  0  0  0
   17.9850    6.8214    3.8799 C   0  0  0  0  0  0  0  0  0  0  0  0
   17.8744    8.1244    3.2945 O   0  0  0  0  0  0  0  0  0  0  0  0
   17.5388    7.1259    5.3050 C   0  0  2  0  0  0  0  0  0  0  0  0
   16.0949    7.3549    5.3081 O   0  0  0  0  0  0  0  0  0  0  0  0
   18.2123    8.4176    5.6468 C   0  0  1  0  0  0  0  0  0  0  0  0
   19.6109    8.2677    6.0341 O   0  0  0  0  0  0  0  0  0  0  0  0
   18.0808    9.1475    4.3174 C   0  0  2  0  0  0  0  0  0  0  0  0
   16.4986   12.6591    7.6061 N   0  0  0  0  0  0  0  0  0  0  0  0
   17.6220   11.7930    7.6447 C   0  0  0  0  0  0  0  0  0  0  0  0
   18.4726   11.8161    8.6813 N   0  0  0  0  0  0  0  0  0  0  0  0
   17.8174   10.9414    6.6132 N   0  0  0  0  0  0  0  0  0  0  0  0
   16.9580   10.9201    5.5760 C   0  0  0  0  0  0  0  0  0  0  0  0
   15.8832   11.7391    5.5013 C   0  0  0  0  0  0  0  0  0  0  0  0
   15.6231   12.6060    6.4877 C   0  0  0  0  0  0  0  0  0  0  0  0
   14.6425   13.3617    6.4404 O   0  0  0  0  0  0  0  0  0  0  0  0
   15.2387   11.4703    4.3629 N   0  0  0  0  0  0  0  0  0  0  0  0
   15.9053   10.5084    3.7331 C   0  0  0  0  0  0  0  0  0  0  0  0
   16.9815   10.1737    4.4779 N   0  0  0  0  0  0  0  0  0  0  0  0
   19.9800    9.1295    6.2415 H   0  0  0  0  0  0  0  0  0  0  0  0
   19.1489   12.5617    8.7633 H   0  0  0  0  0  0  0  0  0  0  0  0
   18.4366   11.0877    9.3800 H   0  0  0  0  0  0  0  0  0  0  0  0
  1  2  1  6
  1  3  2  0
  1  7  1  0
  4  5  1  0
  4  6  1  0
  5 10  1  0
  6  7  1  6
  6  8  1  0
  8  9  1  6
  8 10  1  0
  9 22  1  0
 10 21  1  1
 11 12  1  0
 11 17  1  0
 12 13  1  0
 12 14  2  0
 13 23  1  0
 13 24  1  0
 14 15  1  0
 15 16  2  0
 15 21  1  0
 16 17  1  0
 16 19  1  0
 17 18  2  0
 19 20  2  0
 20 21  1  0
M  CHG  1   2  -1
M  END
>  <CHROM.0>  (81) 
-177.61743127

>  <CHROM.1>  (81) 
147.18469967,-170.38515235,-179.84479567,164.25500701,-76.41543479,16.66433578
9.66876387,5.83911562,1.40393858,-0.13807918,-2.83995129

>  <Name>  (81) 
7lng_h

>  <RI>  (81) 
8.5107e+06

>  <Rbt.Current_Directory>  (81) 
/home/jta30/NA_complexes/7lng

>  <Rbt.Executable>  (81) 
rbdock ($Id: //depot/dev/client3/rdock/2013.1/src/exe/rbdock.cxx#4 $)

>  <Rbt.Library>  (81) 
libRbt.so (2013.1, Build901 2013/11/27)

>  <Rbt.Parameter_File>  (81) 
/software/dev_tools/swtree/cs400_centos7.2_pe2016-08/rdock/2013.1/centos7.2_conda/build/data/scripts/dock.prm

>  <Rbt.Receptor>  (81) 
7lng.prm

>  <SCORE>  (81) 
-17.0932

>  <SCORE.INTER>  (81) 
-12.8331

>  <SCORE.INTER.CONST>  (81) 
1

>  <SCORE.INTER.POLAR>  (81) 
-2.8661

>  <SCORE.INTER.REPUL>  (81) 
0

>  <SCORE.INTER.ROT>  (81) 
4

>  <SCORE.INTER.VDW>  (81) 
-12.4883

>  <SCORE.INTER.norm>  (81) 
-0.611098

>  <SCORE.INTRA>  (81) 
-4.21591

>  <SCORE.INTRA.DIHEDRAL>  (81) 
-7.08687

>  <SCORE.INTRA.DIHEDRAL.0>  (81) 
10.6104

>  <SCORE.INTRA.POLAR>  (81) 
0

>  <SCORE.INTRA.POLAR.0>  (81) 
0

>  <SCORE.INTRA.REPUL>  (81) 
0

>  <SCORE.INTRA.REPUL.0>  (81) 
0

>  <SCORE.INTRA.VDW>  (81) 
-0.672475

>  <SCORE.INTRA.VDW.0>  (81) 
-1.96818

>  <SCORE.INTRA.norm>  (81) 
-0.200758

>  <SCORE.RESTR>  (81) 
0

>  <SCORE.RESTR.CAVITY>  (81) 
0

>  <SCORE.RESTR.norm>  (81) 
0

>  <SCORE.SYSTEM>  (81) 
-0.0442402

>  <SCORE.SYSTEM.CONST>  (81) 
0

>  <SCORE.SYSTEM.DIHEDRAL>  (81) 
0.295592

>  <SCORE.SYSTEM.VDW>  (81) 
-0.192036

>  <SCORE.SYSTEM.norm>  (81) 
-0.00210668

>  <SCORE.heavy>  (81) 
21

>  <SCORE.norm>  (81) 
-0.813963

>  <Predicted_Rank>  (81) 
81.0

$$$$
7lng_h
     RDKit          3D

 24 26  0  0  0  0  0  0  0  0999 V2000
   16.9502    8.2580    6.7693 P   0  0  1  0  0  0  0  0  0  0  0  0
   17.9375    8.8554    7.7008 O   0  0  0  0  0  0  0  0  0  0  0  0
   15.8872    7.3449    7.2612 O   0  0  0  0  0  0  0  0  0  0  0  0
   13.9342    8.6281    5.4278 C   0  0  0  0  0  0  0  0  0  0  0  0
   13.3858    9.8066    6.0304 O   0  0  0  0  0  0  0  0  0  0  0  0
   15.2391    9.1887    4.8748 C   0  0  2  0  0  0  0  0  0  0  0  0
   16.1558    9.4337    5.9870 O   0  0  0  0  0  0  0  0  0  0  0  0
   14.8648   10.5116    4.2843 C   0  0  1  0  0  0  0  0  0  0  0  0
   14.2558   10.4150    2.9621 O   0  0  0  0  0  0  0  0  0  0  0  0
   13.8613   10.9935    5.3226 C   0  0  2  0  0  0  0  0  0  0  0  0
   14.2125   16.0310    5.7097 N   0  0  0  0  0  0  0  0  0  0  0  0
   13.4458   15.2204    4.8328 C   0  0  0  0  0  0  0  0  0  0  0  0
   12.6497   15.7729    3.9056 N   0  0  0  0  0  0  0  0  0  0  0  0
   13.5351   13.8768    4.9507 N   0  0  0  0  0  0  0  0  0  0  0  0
   14.3389   13.3271    5.8817 C   0  0  0  0  0  0  0  0  0  0  0  0
   15.0751   14.0695    6.7410 C   0  0  0  0  0  0  0  0  0  0  0  0
   15.0410   15.4064    6.6810 C   0  0  0  0  0  0  0  0  0  0  0  0
   15.7102   16.1041    7.4559 O   0  0  0  0  0  0  0  0  0  0  0  0
   15.7584   13.2333    7.5269 N   0  0  0  0  0  0  0  0  0  0  0  0
   15.4458   11.9914    7.1718 C   0  0  0  0  0  0  0  0  0  0  0  0
   14.5540   12.0463    6.1587 N   0  0  0  0  0  0  0  0  0  0  0  0
   14.0422   11.2948    2.6427 H   0  0  0  0  0  0  0  0  0  0  0  0
   11.6697   15.9172    4.1024 H   0  0  0  0  0  0  0  0  0  0  0  0
   13.0306   16.0446    3.0106 H   0  0  0  0  0  0  0  0  0  0  0  0
  1  2  1  1
  1  3  2  0
  1  7  1  0
  4  5  1  0
  4  6  1  0
  5 10  1  0
  6  7  1  1
  6  8  1  0
  8  9  1  6
  8 10  1  0
  9 22  1  0
 10 21  1  1
 11 12  1  0
 11 17  1  0
 12 13  1  0
 12 14  2  0
 13 23  1  0
 13 24  1  0
 14 15  1  0
 15 16  2  0
 15 21  1  0
 16 17  1  0
 16 19  1  0
 17 18  2  0
 19 20  2  0
 20 21  1  0
M  CHG  1   2  -1
M  END
>  <CHROM.0>  (82) 
60.16078343

>  <CHROM.1>  (82) 
171.76659158,75.26146841,-179.93657817,-141.83795022,-95.08175746,14.99692161
11.64298920,5.92103920,-1.14642148,-0.83887332,0.21380642

>  <Name>  (82) 
7lng_h

>  <RI>  (82) 
8.5107e+06

>  <Rbt.Current_Directory>  (82) 
/home/jta30/NA_complexes/7lng

>  <Rbt.Executable>  (82) 
rbdock ($Id: //depot/dev/client3/rdock/2013.1/src/exe/rbdock.cxx#4 $)

>  <Rbt.Library>  (82) 
libRbt.so (2013.1, Build901 2013/11/27)

>  <Rbt.Parameter_File>  (82) 
/software/dev_tools/swtree/cs400_centos7.2_pe2016-08/rdock/2013.1/centos7.2_conda/build/data/scripts/dock.prm

>  <Rbt.Receptor>  (82) 
7lng.prm

>  <SCORE>  (82) 
-12.6917

>  <SCORE.INTER>  (82) 
-9.39046

>  <SCORE.INTER.CONST>  (82) 
1

>  <SCORE.INTER.POLAR>  (82) 
-1.11803

>  <SCORE.INTER.REPUL>  (82) 
0

>  <SCORE.INTER.ROT>  (82) 
4

>  <SCORE.INTER.VDW>  (82) 
-14.9891

>  <SCORE.INTER.norm>  (82) 
-0.447165

>  <SCORE.INTRA>  (82) 
-3.8895

>  <SCORE.INTRA.DIHEDRAL>  (82) 
-7.2561

>  <SCORE.INTRA.DIHEDRAL.0>  (82) 
10.6104

>  <SCORE.INTRA.POLAR>  (82) 
0

>  <SCORE.INTRA.POLAR.0>  (82) 
0

>  <SCORE.INTRA.REPUL>  (82) 
0

>  <SCORE.INTRA.REPUL.0>  (82) 
0

>  <SCORE.INTRA.VDW>  (82) 
-0.261452

>  <SCORE.INTRA.VDW.0>  (82) 
-1.96818

>  <SCORE.INTRA.norm>  (82) 
-0.185214

>  <SCORE.RESTR>  (82) 
0

>  <SCORE.RESTR.CAVITY>  (82) 
0

>  <SCORE.RESTR.norm>  (82) 
0

>  <SCORE.SYSTEM>  (82) 
0.588226

>  <SCORE.SYSTEM.CONST>  (82) 
0

>  <SCORE.SYSTEM.DIHEDRAL>  (82) 
0.269829

>  <SCORE.SYSTEM.VDW>  (82) 
0.453311

>  <SCORE.SYSTEM.norm>  (82) 
0.0280107

>  <SCORE.heavy>  (82) 
21

>  <SCORE.norm>  (82) 
-0.604368

>  <Predicted_Rank>  (82) 
82.0

$$$$
7lng_h
     RDKit          3D

 24 26  0  0  0  0  0  0  0  0999 V2000
   11.9493   10.2097    4.4732 P   0  0  1  0  0  0  0  0  0  0  0  0
   10.5938    9.9497    5.0160 O   0  0  0  0  0  0  0  0  0  0  0  0
   12.3933   11.5892    4.1484 O   0  0  0  0  0  0  0  0  0  0  0  0
   14.2922    8.0227    4.1766 C   0  0  0  0  0  0  0  0  0  0  0  0
   15.4876    8.7782    4.4066 O   0  0  0  0  0  0  0  0  0  0  0  0
   13.5584    8.2702    5.4892 C   0  0  2  0  0  0  0  0  0  0  0  0
   13.0673    9.6472    5.5023 O   0  0  0  0  0  0  0  0  0  0  0  0
   14.6126    8.1455    6.5437 C   0  0  1  0  0  0  0  0  0  0  0  0
   14.9344    6.7662    6.8941 O   0  0  0  0  0  0  0  0  0  0  0  0
   15.7782    8.8242    5.8381 C   0  0  2  0  0  0  0  0  0  0  0  0
   19.3282   11.7499    7.9565 N   0  0  0  0  0  0  0  0  0  0  0  0
   19.4129   10.4485    7.3970 C   0  0  0  0  0  0  0  0  0  0  0  0
   20.5770    9.7829    7.3777 N   0  0  0  0  0  0  0  0  0  0  0  0
   18.2933    9.8917    6.8834 N   0  0  0  0  0  0  0  0  0  0  0  0
   17.1259   10.5635    6.9083 C   0  0  0  0  0  0  0  0  0  0  0  0
   17.0114   11.8095    7.4237 C   0  0  0  0  0  0  0  0  0  0  0  0
   18.0765   12.4231    7.9540 C   0  0  0  0  0  0  0  0  0  0  0  0
   17.9920   13.5620    8.4343 O   0  0  0  0  0  0  0  0  0  0  0  0
   15.7373   12.1909    7.3006 N   0  0  0  0  0  0  0  0  0  0  0  0
   15.0710   11.2049    6.7090 C   0  0  0  0  0  0  0  0  0  0  0  0
   15.9337   10.1976    6.4520 N   0  0  0  0  0  0  0  0  0  0  0  0
   15.1466    6.2745    6.0973 H   0  0  0  0  0  0  0  0  0  0  0  0
   21.3868   10.1942    6.9362 H   0  0  0  0  0  0  0  0  0  0  0  0
   20.6436    8.8701    7.8050 H   0  0  0  0  0  0  0  0  0  0  0  0
  1  2  1  1
  1  3  2  0
  1  7  1  0
  4  5  1  0
  4  6  1  0
  5 10  1  0
  6  7  1  6
  6  8  1  0
  8  9  1  6
  8 10  1  0
  9 22  1  0
 10 21  1  1
 11 12  1  0
 11 17  1  0
 12 13  1  0
 12 14  2  0
 13 23  1  0
 13 24  1  0
 14 15  1  0
 15 16  2  0
 15 21  1  0
 16 17  1  0
 16 19  1  0
 17 18  2  0
 19 20  2  0
 20 21  1  0
M  CHG  1   2  -1
M  END
>  <CHROM.0>  (83) 
-61.42930161

>  <CHROM.1>  (83) 
86.97388912,64.72433789,52.83442134,-113.17974239,-56.56065052,15.49316405
10.15211732,6.20161395,2.81470545,0.36132475,-2.92663016

>  <Name>  (83) 
7lng_h

>  <RI>  (83) 
8.5107e+06

>  <Rbt.Current_Directory>  (83) 
/home/jta30/NA_complexes/7lng

>  <Rbt.Executable>  (83) 
rbdock ($Id: //depot/dev/client3/rdock/2013.1/src/exe/rbdock.cxx#4 $)

>  <Rbt.Library>  (83) 
libRbt.so (2013.1, Build901 2013/11/27)

>  <Rbt.Parameter_File>  (83) 
/software/dev_tools/swtree/cs400_centos7.2_pe2016-08/rdock/2013.1/centos7.2_conda/build/data/scripts/dock.prm

>  <Rbt.Receptor>  (83) 
7lng.prm

>  <SCORE>  (83) 
-16.8277

>  <SCORE.INTER>  (83) 
-13.4791

>  <SCORE.INTER.CONST>  (83) 
1

>  <SCORE.INTER.POLAR>  (83) 
-2.09509

>  <SCORE.INTER.REPUL>  (83) 
0.000679796

>  <SCORE.INTER.ROT>  (83) 
4

>  <SCORE.INTER.VDW>  (83) 
-15.7591

>  <SCORE.INTER.norm>  (83) 
-0.64186

>  <SCORE.INTRA>  (83) 
-3.32294

>  <SCORE.INTRA.DIHEDRAL>  (83) 
-6.97418

>  <SCORE.INTRA.DIHEDRAL.0>  (83) 
10.6104

>  <SCORE.INTRA.POLAR>  (83) 
0

>  <SCORE.INTRA.POLAR.0>  (83) 
0

>  <SCORE.INTRA.REPUL>  (83) 
0

>  <SCORE.INTRA.REPUL.0>  (83) 
0

>  <SCORE.INTRA.VDW>  (83) 
0.164147

>  <SCORE.INTRA.VDW.0>  (83) 
-1.96818

>  <SCORE.INTRA.norm>  (83) 
-0.158235

>  <SCORE.RESTR>  (83) 
0

>  <SCORE.RESTR.CAVITY>  (83) 
0

>  <SCORE.RESTR.norm>  (83) 
0

>  <SCORE.SYSTEM>  (83) 
-0.0257019

>  <SCORE.SYSTEM.CONST>  (83) 
0

>  <SCORE.SYSTEM.DIHEDRAL>  (83) 
0.279033

>  <SCORE.SYSTEM.VDW>  (83) 
-0.165218

>  <SCORE.SYSTEM.norm>  (83) 
-0.0012239

>  <SCORE.heavy>  (83) 
21

>  <SCORE.norm>  (83) 
-0.80132

>  <Predicted_Rank>  (83) 
83.0

$$$$
7lng_h
     RDKit          3D

 24 26  0  0  0  0  0  0  0  0999 V2000
   18.6839   11.8026    8.4184 P   0  0  1  0  0  0  0  0  0  0  0  0
   18.3682   10.4423    7.9190 O   0  0  0  0  0  0  0  0  0  0  0  0
   20.0846   12.2124    8.6934 O   0  0  0  0  0  0  0  0  0  0  0  0
   16.5619   14.2947    6.1373 C   0  0  0  0  0  0  0  0  0  0  0  0
   16.8093   13.4885    4.9791 O   0  0  0  0  0  0  0  0  0  0  0  0
   16.7104   13.2466    7.2337 C   0  0  2  0  0  0  0  0  0  0  0  0
   18.1261   12.9107    7.3761 O   0  0  0  0  0  0  0  0  0  0  0  0
   16.0000   12.0402    6.7056 C   0  0  1  0  0  0  0  0  0  0  0  0
   14.5496   12.1001    6.8520 O   0  0  0  0  0  0  0  0  0  0  0  0
   16.4122   12.1068    5.2417 C   0  0  2  0  0  0  0  0  0  0  0  0
   17.2399    7.2000    6.1842 N   0  0  0  0  0  0  0  0  0  0  0  0
   16.1144    8.0193    6.4594 C   0  0  0  0  0  0  0  0  0  0  0  0
   15.0335    7.5182    7.0754 N   0  0  0  0  0  0  0  0  0  0  0  0
   16.1542    9.3184    6.0881 N   0  0  0  0  0  0  0  0  0  0  0  0
   17.2438    9.8173    5.4726 C   0  0  0  0  0  0  0  0  0  0  0  0
   18.3296    9.0625    5.1848 C   0  0  0  0  0  0  0  0  0  0  0  0
   18.3641    7.7685    5.5263 C   0  0  0  0  0  0  0  0  0  0  0  0
   19.3499    7.0613    5.2753 O   0  0  0  0  0  0  0  0  0  0  0  0
   19.2283    9.8460    4.5830 N   0  0  0  0  0  0  0  0  0  0  0  0
   18.7083   11.0653    4.4869 C   0  0  0  0  0  0  0  0  0  0  0  0
   17.4701   11.0475    5.0268 N   0  0  0  0  0  0  0  0  0  0  0  0
   14.3253   12.2034    7.7798 H   0  0  0  0  0  0  0  0  0  0  0  0
   14.6389    7.9969    7.8723 H   0  0  0  0  0  0  0  0  0  0  0  0
   14.6142    6.6620    6.7419 H   0  0  0  0  0  0  0  0  0  0  0  0
  1  2  1  6
  1  3  2  0
  1  7  1  0
  4  5  1  0
  4  6  1  0
  5 10  1  0
  6  7  1  6
  6  8  1  0
  8  9  1  6
  8 10  1  0
  9 22  1  0
 10 21  1  1
 11 12  1  0
 11 17  1  0
 12 13  1  0
 12 14  2  0
 13 23  1  0
 13 24  1  0
 14 15  1  0
 15 16  2  0
 15 21  1  0
 16 17  1  0
 16 19  1  0
 17 18  2  0
 19 20  2  0
 20 21  1  0
M  CHG  1   2  -1
M  END
>  <CHROM.0>  (84) 
-60.95647949

>  <CHROM.1>  (84) 
74.11092315,-178.39574426,-58.43795877,168.16138607,130.23335412,17.46498896
10.69722083,6.41216592,-1.62418219,0.26331322,-2.91404503

>  <Name>  (84) 
7lng_h

>  <RI>  (84) 
8.5107e+06

>  <Rbt.Current_Directory>  (84) 
/home/jta30/NA_complexes/7lng

>  <Rbt.Executable>  (84) 
rbdock ($Id: //depot/dev/client3/rdock/2013.1/src/exe/rbdock.cxx#4 $)

>  <Rbt.Library>  (84) 
libRbt.so (2013.1, Build901 2013/11/27)

>  <Rbt.Parameter_File>  (84) 
/software/dev_tools/swtree/cs400_centos7.2_pe2016-08/rdock/2013.1/centos7.2_conda/build/data/scripts/dock.prm

>  <Rbt.Receptor>  (84) 
7lng.prm

>  <SCORE>  (84) 
-13.1067

>  <SCORE.INTER>  (84) 
-8.17468

>  <SCORE.INTER.CONST>  (84) 
1

>  <SCORE.INTER.POLAR>  (84) 
-1.91828

>  <SCORE.INTER.REPUL>  (84) 
0.128999

>  <SCORE.INTER.ROT>  (84) 
4

>  <SCORE.INTER.VDW>  (84) 
-11.6975

>  <SCORE.INTER.norm>  (84) 
-0.389271

>  <SCORE.INTRA>  (84) 
-4.90692

>  <SCORE.INTRA.DIHEDRAL>  (84) 
-7.779

>  <SCORE.INTRA.DIHEDRAL.0>  (84) 
10.6104

>  <SCORE.INTRA.POLAR>  (84) 
0

>  <SCORE.INTRA.POLAR.0>  (84) 
0

>  <SCORE.INTRA.REPUL>  (84) 
0

>  <SCORE.INTRA.REPUL.0>  (84) 
0

>  <SCORE.INTRA.VDW>  (84) 
-1.01742

>  <SCORE.INTRA.VDW.0>  (84) 
-1.96818

>  <SCORE.INTRA.norm>  (84) 
-0.233663

>  <SCORE.RESTR>  (84) 
0

>  <SCORE.RESTR.CAVITY>  (84) 
0

>  <SCORE.RESTR.norm>  (84) 
0

>  <SCORE.SYSTEM>  (84) 
-0.0250715

>  <SCORE.SYSTEM.CONST>  (84) 
0

>  <SCORE.SYSTEM.DIHEDRAL>  (84) 
0.273887

>  <SCORE.SYSTEM.VDW>  (84) 
-0.162015

>  <SCORE.SYSTEM.norm>  (84) 
-0.00119388

>  <SCORE.heavy>  (84) 
21

>  <SCORE.norm>  (84) 
-0.624127

>  <Predicted_Rank>  (84) 
84.0

$$$$
7lng_h
     RDKit          3D

 24 26  0  0  0  0  0  0  0  0999 V2000
   13.5465   12.3199    2.4926 P   0  0  1  0  0  0  0  0  0  0  0  0
   12.8582   12.6641    1.2248 O   0  0  0  0  0  0  0  0  0  0  0  0
   13.1953   13.0009    3.7648 O   0  0  0  0  0  0  0  0  0  0  0  0
   12.2551    8.6087    3.1638 C   0  0  0  0  0  0  0  0  0  0  0  0
   12.9391    8.4975    4.4178 O   0  0  0  0  0  0  0  0  0  0  0  0
   12.0685   10.1195    3.0900 C   0  0  2  0  0  0  0  0  0  0  0  0
   13.3607   10.7407    2.8042 O   0  0  0  0  0  0  0  0  0  0  0  0
   11.6588   10.5201    4.4723 C   0  0  1  0  0  0  0  0  0  0  0  0
   10.2485   10.2821    4.7605 O   0  0  0  0  0  0  0  0  0  0  0  0
   12.5544    9.6029    5.2930 C   0  0  2  0  0  0  0  0  0  0  0  0
   17.3861    9.1742    6.7495 N   0  0  0  0  0  0  0  0  0  0  0  0
   16.4914    8.2123    6.2128 C   0  0  0  0  0  0  0  0  0  0  0  0
   16.8801    6.9430    6.0221 N   0  0  0  0  0  0  0  0  0  0  0  0
   15.2360    8.6022    5.8978 N   0  0  0  0  0  0  0  0  0  0  0  0
   14.8498    9.8777    6.0944 C   0  0  0  0  0  0  0  0  0  0  0  0
   15.6796   10.8231    6.5936 C   0  0  0  0  0  0  0  0  0  0  0  0
   16.9362   10.5099    6.9327 C   0  0  0  0  0  0  0  0  0  0  0  0
   17.7105   11.3596    7.3948 O   0  0  0  0  0  0  0  0  0  0  0  0
   14.9998   11.9704    6.6678 N   0  0  0  0  0  0  0  0  0  0  0  0
   13.7712   11.7476    6.2127 C   0  0  0  0  0  0  0  0  0  0  0  0
   13.6789   10.4515    5.8433 N   0  0  0  0  0  0  0  0  0  0  0  0
    9.7071   10.8069    4.1661 H   0  0  0  0  0  0  0  0  0  0  0  0
   17.7669    6.6260    6.3869 H   0  0  0  0  0  0  0  0  0  0  0  0
   16.2856    6.3042    5.5136 H   0  0  0  0  0  0  0  0  0  0  0  0
  1  2  1  6
  1  3  2  0
  1  7  1  0
  4  5  1  0
  4  6  1  0
  5 10  1  0
  6  7  1  1
  6  8  1  0
  8  9  1  6
  8 10  1  0
  9 22  1  0
 10 21  1  6
 11 12  1  0
 11 17  1  0
 12 13  1  0
 12 14  2  0
 13 23  1  0
 13 24  1  0
 14 15  1  0
 15 16  2  0
 15 21  1  0
 16 17  1  0
 16 19  1  0
 17 18  2  0
 19 20  2  0
 20 21  1  0
M  CHG  1   2  -1
M  END
>  <CHROM.0>  (85) 
-177.43361355

>  <CHROM.1>  (85) 
-65.03987353,173.18759250,-61.93978398,-32.54522508,9.23910645,14.11882932
10.40848277,4.84291294,-2.62735323,0.59074834,2.82849376

>  <Name>  (85) 
7lng_h

>  <RI>  (85) 
8.5107e+06

>  <Rbt.Current_Directory>  (85) 
/home/jta30/NA_complexes/7lng

>  <Rbt.Executable>  (85) 
rbdock ($Id: //depot/dev/client3/rdock/2013.1/src/exe/rbdock.cxx#4 $)

>  <Rbt.Library>  (85) 
libRbt.so (2013.1, Build901 2013/11/27)

>  <Rbt.Parameter_File>  (85) 
/software/dev_tools/swtree/cs400_centos7.2_pe2016-08/rdock/2013.1/centos7.2_conda/build/data/scripts/dock.prm

>  <Rbt.Receptor>  (85) 
7lng.prm

>  <SCORE>  (85) 
-14.0241

>  <SCORE.INTER>  (85) 
-9.08034

>  <SCORE.INTER.CONST>  (85) 
1

>  <SCORE.INTER.POLAR>  (85) 
-1.35241

>  <SCORE.INTER.REPUL>  (85) 
0

>  <SCORE.INTER.ROT>  (85) 
4

>  <SCORE.INTER.VDW>  (85) 
-13.8821

>  <SCORE.INTER.norm>  (85) 
-0.432397

>  <SCORE.INTRA>  (85) 
-4.90016

>  <SCORE.INTRA.DIHEDRAL>  (85) 
-8.08218

>  <SCORE.INTRA.DIHEDRAL.0>  (85) 
10.6104

>  <SCORE.INTRA.POLAR>  (85) 
0

>  <SCORE.INTRA.POLAR.0>  (85) 
0

>  <SCORE.INTRA.REPUL>  (85) 
0

>  <SCORE.INTRA.REPUL.0>  (85) 
0

>  <SCORE.INTRA.VDW>  (85) 
-0.859074

>  <SCORE.INTRA.VDW.0>  (85) 
-1.96818

>  <SCORE.INTRA.norm>  (85) 
-0.233341

>  <SCORE.RESTR>  (85) 
0

>  <SCORE.RESTR.CAVITY>  (85) 
0

>  <SCORE.RESTR.norm>  (85) 
0

>  <SCORE.SYSTEM>  (85) 
-0.0435923

>  <SCORE.SYSTEM.CONST>  (85) 
0

>  <SCORE.SYSTEM.DIHEDRAL>  (85) 
0.299733

>  <SCORE.SYSTEM.VDW>  (85) 
-0.193459

>  <SCORE.SYSTEM.norm>  (85) 
-0.00207582

>  <SCORE.heavy>  (85) 
21

>  <SCORE.norm>  (85) 
-0.667814

>  <Predicted_Rank>  (85) 
85.0

$$$$
7lng_h
     RDKit          3D

 24 26  0  0  0  0  0  0  0  0999 V2000
   12.6362   10.1994    4.7127 P   0  0  1  0  0  0  0  0  0  0  0  0
   11.4407    9.3566    4.4676 O   0  0  0  0  0  0  0  0  0  0  0  0
   12.8948   10.7927    6.0494 O   0  0  0  0  0  0  0  0  0  0  0  0
   15.4017    7.4074    4.1212 C   0  0  0  0  0  0  0  0  0  0  0  0
   16.5095    8.1932    4.5772 O   0  0  0  0  0  0  0  0  0  0  0  0
   14.2718    8.0400    4.9248 C   0  0  2  0  0  0  0  0  0  0  0  0
   13.9776    9.3590    4.3669 O   0  0  0  0  0  0  0  0  0  0  0  0
   14.8416    8.2341    6.2946 C   0  0  1  0  0  0  0  0  0  0  0  0
   14.8456    7.0226    7.1076 O   0  0  0  0  0  0  0  0  0  0  0  0
   16.2567    8.6659    5.9368 C   0  0  2  0  0  0  0  0  0  0  0  0
   19.3073   12.1181    8.0408 N   0  0  0  0  0  0  0  0  0  0  0  0
   19.4476   10.7116    7.9149 C   0  0  0  0  0  0  0  0  0  0  0  0
   20.5257   10.0817    8.4045 N   0  0  0  0  0  0  0  0  0  0  0  0
   18.4698   10.0177    7.2907 N   0  0  0  0  0  0  0  0  0  0  0  0
   17.3874   10.6551    6.8036 C   0  0  0  0  0  0  0  0  0  0  0  0
   17.2263   11.9955    6.8963 C   0  0  0  0  0  0  0  0  0  0  0  0
   18.1513   12.7479    7.5049 C   0  0  0  0  0  0  0  0  0  0  0  0
   18.0210   13.9760    7.6036 O   0  0  0  0  0  0  0  0  0  0  0  0
   16.0609   12.3109    6.3253 N   0  0  0  0  0  0  0  0  0  0  0  0
   15.5097   11.1886    5.8746 C   0  0  0  0  0  0  0  0  0  0  0  0
   16.3377   10.1598    6.1585 N   0  0  0  0  0  0  0  0  0  0  0  0
   15.1838    7.2255    7.9830 H   0  0  0  0  0  0  0  0  0  0  0  0
   20.6760    9.1043    8.1998 H   0  0  0  0  0  0  0  0  0  0  0  0
   21.1873   10.5853    8.9779 H   0  0  0  0  0  0  0  0  0  0  0  0
  1  2  1  1
  1  3  2  0
  1  7  1  0
  4  5  1  0
  4  6  1  0
  5 10  1  0
  6  7  1  6
  6  8  1  0
  8  9  1  1
  8 10  1  0
  9 22  1  0
 10 21  1  6
 11 12  1  0
 11 17  1  0
 12 13  1  0
 12 14  2  0
 13 23  1  0
 13 24  1  0
 14 15  1  0
 15 16  2  0
 15 21  1  0
 16 17  1  0
 16 19  1  0
 17 18  2  0
 19 20  2  0
 20 21  1  0
M  CHG  1   2  -1
M  END
>  <CHROM.0>  (86) 
-178.20800157

>  <CHROM.1>  (86) 
-52.81364366,165.43903265,-177.35834143,-106.34761181,-171.63458032,15.91050863
10.10651045,6.15285016,2.68522341,0.39463656,-2.97000548

>  <Name>  (86) 
7lng_h

>  <RI>  (86) 
8.5107e+06

>  <Rbt.Current_Directory>  (86) 
/home/jta30/NA_complexes/7lng

>  <Rbt.Executable>  (86) 
rbdock ($Id: //depot/dev/client3/rdock/2013.1/src/exe/rbdock.cxx#4 $)

>  <Rbt.Library>  (86) 
libRbt.so (2013.1, Build901 2013/11/27)

>  <Rbt.Parameter_File>  (86) 
/software/dev_tools/swtree/cs400_centos7.2_pe2016-08/rdock/2013.1/centos7.2_conda/build/data/scripts/dock.prm

>  <Rbt.Receptor>  (86) 
7lng.prm

>  <SCORE>  (86) 
-15.7489

>  <SCORE.INTER>  (86) 
-11.9643

>  <SCORE.INTER.CONST>  (86) 
1

>  <SCORE.INTER.POLAR>  (86) 
-2.43726

>  <SCORE.INTER.REPUL>  (86) 
0

>  <SCORE.INTER.ROT>  (86) 
4

>  <SCORE.INTER.VDW>  (86) 
-13.0776

>  <SCORE.INTER.norm>  (86) 
-0.569727

>  <SCORE.INTRA>  (86) 
-3.73941

>  <SCORE.INTRA.DIHEDRAL>  (86) 
-7.00639

>  <SCORE.INTRA.DIHEDRAL.0>  (86) 
10.6104

>  <SCORE.INTRA.POLAR>  (86) 
0

>  <SCORE.INTRA.POLAR.0>  (86) 
0

>  <SCORE.INTRA.REPUL>  (86) 
0

>  <SCORE.INTRA.REPUL.0>  (86) 
0

>  <SCORE.INTRA.VDW>  (86) 
-0.236214

>  <SCORE.INTRA.VDW.0>  (86) 
-1.96818

>  <SCORE.INTRA.norm>  (86) 
-0.178067

>  <SCORE.RESTR>  (86) 
0

>  <SCORE.RESTR.CAVITY>  (86) 
0

>  <SCORE.RESTR.norm>  (86) 
0

>  <SCORE.SYSTEM>  (86) 
-0.0451829

>  <SCORE.SYSTEM.CONST>  (86) 
0

>  <SCORE.SYSTEM.DIHEDRAL>  (86) 
0.28436

>  <SCORE.SYSTEM.VDW>  (86) 
-0.187363

>  <SCORE.SYSTEM.norm>  (86) 
-0.00215156

>  <SCORE.heavy>  (86) 
21

>  <SCORE.norm>  (86) 
-0.749946

>  <Predicted_Rank>  (86) 
86.0

$$$$
7lng_h
     RDKit          3D

 24 26  0  0  0  0  0  0  0  0999 V2000
   15.1540   10.1061    2.6881 P   0  0  1  0  0  0  0  0  0  0  0  0
   13.6784   10.2465    2.6403 O   0  0  0  0  0  0  0  0  0  0  0  0
   16.0263   10.8573    1.7499 O   0  0  0  0  0  0  0  0  0  0  0  0
   13.8957    9.9218    5.6880 C   0  0  0  0  0  0  0  0  0  0  0  0
   14.8152    9.0945    6.4110 O   0  0  0  0  0  0  0  0  0  0  0  0
   14.8347   11.0289    5.2238 C   0  0  2  0  0  0  0  0  0  0  0  0
   15.6935   10.5047    4.1631 O   0  0  0  0  0  0  0  0  0  0  0  0
   15.6950   11.3214    6.4126 C   0  0  1  0  0  0  0  0  0  0  0  0
   15.0543   12.1755    7.4070 O   0  0  0  0  0  0  0  0  0  0  0  0
   15.9031    9.9108    6.9456 C   0  0  2  0  0  0  0  0  0  0  0  0
   20.7046   10.7877    8.2972 N   0  0  0  0  0  0  0  0  0  0  0  0
   19.4868   11.2857    8.8288 C   0  0  0  0  0  0  0  0  0  0  0  0
   19.4866   12.1448    9.8587 N   0  0  0  0  0  0  0  0  0  0  0  0
   18.3240   10.8764    8.2741 N   0  0  0  0  0  0  0  0  0  0  0  0
   18.3302   10.0159    7.2376 C   0  0  0  0  0  0  0  0  0  0  0  0
   19.4717    9.5127    6.7130 C   0  0  0  0  0  0  0  0  0  0  0  0
   20.6614    9.8760    7.2078 C   0  0  0  0  0  0  0  0  0  0  0  0
   21.7182    9.4299    6.7394 O   0  0  0  0  0  0  0  0  0  0  0  0
   19.1395    8.7002    5.7065 N   0  0  0  0  0  0  0  0  0  0  0  0
   17.8140    8.6878    5.6117 C   0  0  0  0  0  0  0  0  0  0  0  0
   17.3076    9.4939    6.5701 N   0  0  0  0  0  0  0  0  0  0  0  0
   14.8454   13.0254    7.0123 H   0  0  0  0  0  0  0  0  0  0  0  0
   18.8981   12.9652    9.8321 H   0  0  0  0  0  0  0  0  0  0  0  0
   20.0750   11.9710   10.6609 H   0  0  0  0  0  0  0  0  0  0  0  0
  1  2  1  1
  1  3  2  0
  1  7  1  0
  4  5  1  0
  4  6  1  0
  5 10  1  0
  6  7  1  6
  6  8  1  0
  8  9  1  1
  8 10  1  0
  9 22  1  0
 10 21  1  6
 11 12  1  0
 11 17  1  0
 12 13  1  0
 12 14  2  0
 13 23  1  0
 13 24  1  0
 14 15  1  0
 15 16  2  0
 15 21  1  0
 16 17  1  0
 16 19  1  0
 17 18  2  0
 19 20  2  0
 20 21  1  0
M  CHG  1   2  -1
M  END
>  <CHROM.0>  (87) 
-62.57193233

>  <CHROM.1>  (87) 
-4.76506340,68.82201622,-61.37466412,-166.21137704,134.25616724,17.09982680
10.31028839,5.96542618,-2.46805283,-0.24427089,1.23879699

>  <Name>  (87) 
7lng_h

>  <RI>  (87) 
8.5107e+06

>  <Rbt.Current_Directory>  (87) 
/home/jta30/NA_complexes/7lng

>  <Rbt.Executable>  (87) 
rbdock ($Id: //depot/dev/client3/rdock/2013.1/src/exe/rbdock.cxx#4 $)

>  <Rbt.Library>  (87) 
libRbt.so (2013.1, Build901 2013/11/27)

>  <Rbt.Parameter_File>  (87) 
/software/dev_tools/swtree/cs400_centos7.2_pe2016-08/rdock/2013.1/centos7.2_conda/build/data/scripts/dock.prm

>  <Rbt.Receptor>  (87) 
7lng.prm

>  <SCORE>  (87) 
-9.40867

>  <SCORE.INTER>  (87) 
-6.01602

>  <SCORE.INTER.CONST>  (87) 
1

>  <SCORE.INTER.POLAR>  (87) 
-0.894314

>  <SCORE.INTER.REPUL>  (87) 
0.00180407

>  <SCORE.INTER.ROT>  (87) 
4

>  <SCORE.INTER.VDW>  (87) 
-12.3844

>  <SCORE.INTER.norm>  (87) 
-0.286477

>  <SCORE.INTRA>  (87) 
-3.36992

>  <SCORE.INTRA.DIHEDRAL>  (87) 
-6.39322

>  <SCORE.INTRA.DIHEDRAL.0>  (87) 
10.6104

>  <SCORE.INTRA.POLAR>  (87) 
0

>  <SCORE.INTRA.POLAR.0>  (87) 
0

>  <SCORE.INTRA.REPUL>  (87) 
0

>  <SCORE.INTRA.REPUL.0>  (87) 
0

>  <SCORE.INTRA.VDW>  (87) 
-0.173311

>  <SCORE.INTRA.VDW.0>  (87) 
-1.96818

>  <SCORE.INTRA.norm>  (87) 
-0.160472

>  <SCORE.RESTR>  (87) 
0

>  <SCORE.RESTR.CAVITY>  (87) 
0

>  <SCORE.RESTR.norm>  (87) 
0

>  <SCORE.SYSTEM>  (87) 
-0.0227278

>  <SCORE.SYSTEM.CONST>  (87) 
0

>  <SCORE.SYSTEM.DIHEDRAL>  (87) 
0.299863

>  <SCORE.SYSTEM.VDW>  (87) 
-0.172659

>  <SCORE.SYSTEM.norm>  (87) 
-0.00108227

>  <SCORE.heavy>  (87) 
21

>  <SCORE.norm>  (87) 
-0.448032

>  <Predicted_Rank>  (87) 
87.0

$$$$
7lng_h
     RDKit          3D

 24 26  0  0  0  0  0  0  0  0999 V2000
   14.3721    6.3609    5.5299 P   0  0  1  0  0  0  0  0  0  0  0  0
   14.8373    6.4583    6.9348 O   0  0  0  0  0  0  0  0  0  0  0  0
   12.9299    6.2114    5.2086 O   0  0  0  0  0  0  0  0  0  0  0  0
   16.2734    9.5479    4.1205 C   0  0  0  0  0  0  0  0  0  0  0  0
   15.1035   10.2867    3.7490 O   0  0  0  0  0  0  0  0  0  0  0  0
   15.7128    8.7091    5.2628 C   0  0  2  0  0  0  0  0  0  0  0  0
   14.8455    7.6728    4.7051 O   0  0  0  0  0  0  0  0  0  0  0  0
   14.8579    9.6554    6.0456 C   0  0  1  0  0  0  0  0  0  0  0  0
   15.6109   10.5205    6.9473 O   0  0  0  0  0  0  0  0  0  0  0  0
   14.2307   10.4511    4.9096 C   0  0  2  0  0  0  0  0  0  0  0  0
    9.8744   11.8268    2.7232 N   0  0  0  0  0  0  0  0  0  0  0  0
   11.1524   12.4434    2.7109 C   0  0  0  0  0  0  0  0  0  0  0  0
   11.3558   13.5906    2.0466 N   0  0  0  0  0  0  0  0  0  0  0  0
   12.1629   11.8501    3.3847 N   0  0  0  0  0  0  0  0  0  0  0  0
   11.9522   10.6995    4.0530 C   0  0  0  0  0  0  0  0  0  0  0  0
   10.7500   10.0786    4.0769 C   0  0  0  0  0  0  0  0  0  0  0  0
    9.7013   10.6095    3.4361 C   0  0  0  0  0  0  0  0  0  0  0  0
    8.5915   10.0590    3.4488 O   0  0  0  0  0  0  0  0  0  0  0  0
   10.8706    8.9756    4.8203 N   0  0  0  0  0  0  0  0  0  0  0  0
   12.1284    8.9036    5.2435 C   0  0  0  0  0  0  0  0  0  0  0  0
   12.8062    9.9662    4.7576 N   0  0  0  0  0  0  0  0  0  0  0  0
   15.0071   11.1135    7.4008 H   0  0  0  0  0  0  0  0  0  0  0  0
   10.7611   14.3879    2.2214 H   0  0  0  0  0  0  0  0  0  0  0  0
   12.1041   13.6569    1.3715 H   0  0  0  0  0  0  0  0  0  0  0  0
  1  2  1  1
  1  3  2  0
  1  7  1  0
  4  5  1  0
  4  6  1  0
  5 10  1  0
  6  7  1  6
  6  8  1  0
  8  9  1  1
  8 10  1  0
  9 22  1  0
 10 21  1  6
 11 12  1  0
 11 17  1  0
 12 13  1  0
 12 14  2  0
 13 23  1  0
 13 24  1  0
 14 15  1  0
 15 16  2  0
 15 21  1  0
 16 17  1  0
 16 19  1  0
 17 18  2  0
 19 20  2  0
 20 21  1  0
M  CHG  1   2  -1
M  END
>  <CHROM.0>  (88) 
-177.61573154

>  <CHROM.1>  (88) 
5.55809380,163.52668776,178.67467133,-75.94588731,53.21443894,13.00810733
9.53350993,4.56631277,0.80070446,0.23649262,2.78049614

>  <Name>  (88) 
7lng_h

>  <RI>  (88) 
8.5107e+06

>  <Rbt.Current_Directory>  (88) 
/home/jta30/NA_complexes/7lng

>  <Rbt.Executable>  (88) 
rbdock ($Id: //depot/dev/client3/rdock/2013.1/src/exe/rbdock.cxx#4 $)

>  <Rbt.Library>  (88) 
libRbt.so (2013.1, Build901 2013/11/27)

>  <Rbt.Parameter_File>  (88) 
/software/dev_tools/swtree/cs400_centos7.2_pe2016-08/rdock/2013.1/centos7.2_conda/build/data/scripts/dock.prm

>  <Rbt.Receptor>  (88) 
7lng.prm

>  <SCORE>  (88) 
-13.0211

>  <SCORE.INTER>  (88) 
-9.65055

>  <SCORE.INTER.CONST>  (88) 
1

>  <SCORE.INTER.POLAR>  (88) 
-1.50493

>  <SCORE.INTER.REPUL>  (88) 
0.000934045

>  <SCORE.INTER.ROT>  (88) 
4

>  <SCORE.INTER.VDW>  (88) 
-13.9385

>  <SCORE.INTER.norm>  (88) 
-0.45955

>  <SCORE.INTRA>  (88) 
-3.3263

>  <SCORE.INTRA.DIHEDRAL>  (88) 
-5.55038

>  <SCORE.INTRA.DIHEDRAL.0>  (88) 
10.6104

>  <SCORE.INTRA.POLAR>  (88) 
0

>  <SCORE.INTRA.POLAR.0>  (88) 
0

>  <SCORE.INTRA.REPUL>  (88) 
0

>  <SCORE.INTRA.REPUL.0>  (88) 
0

>  <SCORE.INTRA.VDW>  (88) 
-0.551112

>  <SCORE.INTRA.VDW.0>  (88) 
-1.96818

>  <SCORE.INTRA.norm>  (88) 
-0.158395

>  <SCORE.RESTR>  (88) 
0

>  <SCORE.RESTR.CAVITY>  (88) 
0

>  <SCORE.RESTR.norm>  (88) 
0

>  <SCORE.SYSTEM>  (88) 
-0.044235

>  <SCORE.SYSTEM.CONST>  (88) 
0

>  <SCORE.SYSTEM.DIHEDRAL>  (88) 
0.295629

>  <SCORE.SYSTEM.VDW>  (88) 
-0.192049

>  <SCORE.SYSTEM.norm>  (88) 
-0.00210643

>  <SCORE.heavy>  (88) 
21

>  <SCORE.norm>  (88) 
-0.620052

>  <Predicted_Rank>  (88) 
88.0

$$$$
7lng_h
     RDKit          3D

 24 26  0  0  0  0  0  0  0  0999 V2000
   14.7530    7.1304    5.9105 P   0  0  1  0  0  0  0  0  0  0  0  0
   15.0160    6.5854    7.2645 O   0  0  0  0  0  0  0  0  0  0  0  0
   14.0277    6.3315    4.8902 O   0  0  0  0  0  0  0  0  0  0  0  0
   12.6842   10.4981    5.3691 C   0  0  0  0  0  0  0  0  0  0  0  0
   13.7141   11.2972    5.9637 O   0  0  0  0  0  0  0  0  0  0  0  0
   13.5091    9.3145    4.8780 C   0  0  2  0  0  0  0  0  0  0  0  0
   13.9112    8.5097    6.0305 O   0  0  0  0  0  0  0  0  0  0  0  0
   14.7410    9.9272    4.2898 C   0  0  1  0  0  0  0  0  0  0  0  0
   14.5509   10.4531    2.9423 O   0  0  0  0  0  0  0  0  0  0  0  0
   14.9874   11.0464    5.2917 C   0  0  2  0  0  0  0  0  0  0  0  0
   18.3132   13.0030    8.5721 N   0  0  0  0  0  0  0  0  0  0  0  0
   17.2503   13.6122    7.8560 C   0  0  0  0  0  0  0  0  0  0  0  0
   16.9952   14.9223    7.9869 N   0  0  0  0  0  0  0  0  0  0  0  0
   16.4987   12.8434    7.0366 N   0  0  0  0  0  0  0  0  0  0  0  0
   16.7613   11.5285    6.9065 C   0  0  0  0  0  0  0  0  0  0  0  0
   17.7593   10.9129    7.5820 C   0  0  0  0  0  0  0  0  0  0  0  0
   18.5481   11.6108    8.4084 C   0  0  0  0  0  0  0  0  0  0  0  0
   19.4695   11.0670    9.0331 O   0  0  0  0  0  0  0  0  0  0  0  0
   17.7584    9.6236    7.2338 N   0  0  0  0  0  0  0  0  0  0  0  0
   16.7706    9.4356    6.3648 C   0  0  0  0  0  0  0  0  0  0  0  0
   16.1408   10.6146    6.1695 N   0  0  0  0  0  0  0  0  0  0  0  0
   14.2829    9.7419    2.3557 H   0  0  0  0  0  0  0  0  0  0  0  0
   17.2853   15.5679    7.2664 H   0  0  0  0  0  0  0  0  0  0  0  0
   16.5128   15.2632    8.8061 H   0  0  0  0  0  0  0  0  0  0  0  0
  1  2  1  1
  1  3  2  0
  1  7  1  0
  4  5  1  0
  4  6  1  0
  5 10  1  0
  6  7  1  1
  6  8  1  0
  8  9  1  6
  8 10  1  0
  9 22  1  0
 10 21  1  1
 11 12  1  0
 11 17  1  0
 12 13  1  0
 12 14  2  0
 13 23  1  0
 13 24  1  0
 14 15  1  0
 15 16  2  0
 15 21  1  0
 16 17  1  0
 16 19  1  0
 17 18  2  0
 19 20  2  0
 20 21  1  0
M  CHG  1   2  -1
M  END
>  <CHROM.0>  (89) 
-177.12113555

>  <CHROM.1>  (89) 
178.86175514,177.48126583,-60.28046166,-76.62744313,102.64862434,15.78623399
10.25503030,6.40945179,-2.38414133,-0.69166257,-0.05711410

>  <Name>  (89) 
7lng_h

>  <RI>  (89) 
8.5107e+06

>  <Rbt.Current_Directory>  (89) 
/home/jta30/NA_complexes/7lng

>  <Rbt.Executable>  (89) 
rbdock ($Id: //depot/dev/client3/rdock/2013.1/src/exe/rbdock.cxx#4 $)

>  <Rbt.Library>  (89) 
libRbt.so (2013.1, Build901 2013/11/27)

>  <Rbt.Parameter_File>  (89) 
/software/dev_tools/swtree/cs400_centos7.2_pe2016-08/rdock/2013.1/centos7.2_conda/build/data/scripts/dock.prm

>  <Rbt.Receptor>  (89) 
7lng.prm

>  <SCORE>  (89) 
-14.68

>  <SCORE.INTER>  (89) 
-10.2308

>  <SCORE.INTER.CONST>  (89) 
1

>  <SCORE.INTER.POLAR>  (89) 
-1.61305

>  <SCORE.INTER.REPUL>  (89) 
0.0385183

>  <SCORE.INTER.ROT>  (89) 
4

>  <SCORE.INTER.VDW>  (89) 
-14.339

>  <SCORE.INTER.norm>  (89) 
-0.487179

>  <SCORE.INTRA>  (89) 
-4.40712

>  <SCORE.INTRA.DIHEDRAL>  (89) 
-8.10857

>  <SCORE.INTRA.DIHEDRAL.0>  (89) 
10.6104

>  <SCORE.INTRA.POLAR>  (89) 
0

>  <SCORE.INTRA.POLAR.0>  (89) 
0

>  <SCORE.INTRA.REPUL>  (89) 
0

>  <SCORE.INTRA.REPUL.0>  (89) 
0

>  <SCORE.INTRA.VDW>  (89) 
-0.352837

>  <SCORE.INTRA.VDW.0>  (89) 
-1.96818

>  <SCORE.INTRA.norm>  (89) 
-0.209863

>  <SCORE.RESTR>  (89) 
0

>  <SCORE.RESTR.CAVITY>  (89) 
0

>  <SCORE.RESTR.norm>  (89) 
0

>  <SCORE.SYSTEM>  (89) 
-0.042106

>  <SCORE.SYSTEM.CONST>  (89) 
0

>  <SCORE.SYSTEM.DIHEDRAL>  (89) 
0.307474

>  <SCORE.SYSTEM.VDW>  (89) 
-0.195843

>  <SCORE.SYSTEM.norm>  (89) 
-0.00200505

>  <SCORE.heavy>  (89) 
21

>  <SCORE.norm>  (89) 
-0.699047

>  <Predicted_Rank>  (89) 
89.0

$$$$
7lng_h
     RDKit          3D

 24 26  0  0  0  0  0  0  0  0999 V2000
   15.2574    7.9531    6.5037 P   0  0  1  0  0  0  0  0  0  0  0  0
   15.0831    6.8266    7.4525 O   0  0  0  0  0  0  0  0  0  0  0  0
   14.1262    8.8549    6.1684 O   0  0  0  0  0  0  0  0  0  0  0  0
   18.1323    8.5241    5.3550 C   0  0  0  0  0  0  0  0  0  0  0  0
   18.0073    9.8873    4.9322 O   0  0  0  0  0  0  0  0  0  0  0  0
   17.8542    8.6762    6.8457 C   0  0  2  0  0  0  0  0  0  0  0  0
   16.4285    8.9389    7.0349 O   0  0  0  0  0  0  0  0  0  0  0  0
   18.6079    9.9040    7.2500 C   0  0  1  0  0  0  0  0  0  0  0  0
   20.0337    9.6769    7.4602 O   0  0  0  0  0  0  0  0  0  0  0  0
   18.3606   10.7827    6.0318 C   0  0  2  0  0  0  0  0  0  0  0  0
   17.5590   15.7775    5.7878 N   0  0  0  0  0  0  0  0  0  0  0  0
   18.6348   14.9872    5.3064 C   0  0  0  0  0  0  0  0  0  0  0  0
   19.6717   15.5519    4.6703 N   0  0  0  0  0  0  0  0  0  0  0  0
   18.5937   13.6505    5.5033 N   0  0  0  0  0  0  0  0  0  0  0  0
   17.5512   13.0889    6.1457 C   0  0  0  0  0  0  0  0  0  0  0  0
   16.5038   13.8104    6.6079 C   0  0  0  0  0  0  0  0  0  0  0  0
   16.4770   15.1400    6.4534 C   0  0  0  0  0  0  0  0  0  0  0  0
   15.5294   15.8191    6.8725 O   0  0  0  0  0  0  0  0  0  0  0  0
   15.6485   12.9673    7.1922 N   0  0  0  0  0  0  0  0  0  0  0  0
   16.1479   11.7403    7.0868 C   0  0  0  0  0  0  0  0  0  0  0  0
   17.3236   11.8108    6.4254 N   0  0  0  0  0  0  0  0  0  0  0  0
   20.1589    8.8645    7.9563 H   0  0  0  0  0  0  0  0  0  0  0  0
   19.5416   15.9610    3.7562 H   0  0  0  0  0  0  0  0  0  0  0  0
   20.5829   15.5680    5.1058 H   0  0  0  0  0  0  0  0  0  0  0  0
  1  2  1  1
  1  3  2  0
  1  7  1  0
  4  5  1  0
  4  6  1  0
  5 10  1  0
  6  7  1  6
  6  8  1  0
  8  9  1  6
  8 10  1  0
  9 22  1  0
 10 21  1  1
 11 12  1  0
 11 17  1  0
 12 13  1  0
 12 14  2  0
 13 23  1  0
 13 24  1  0
 14 15  1  0
 15 16  2  0
 15 21  1  0
 16 17  1  0
 16 19  1  0
 17 18  2  0
 19 20  2  0
 20 21  1  0
M  CHG  1   2  -1
M  END
>  <CHROM.0>  (90) 
59.83110132

>  <CHROM.1>  (90) 
80.78420692,57.14131343,-43.69798295,-109.16956008,-68.48596599,17.10640469
11.34205851,6.34841335,1.79011654,-0.19048157,3.06719449

>  <Name>  (90) 
7lng_h

>  <RI>  (90) 
8.5107e+06

>  <Rbt.Current_Directory>  (90) 
/home/jta30/NA_complexes/7lng

>  <Rbt.Executable>  (90) 
rbdock ($Id: //depot/dev/client3/rdock/2013.1/src/exe/rbdock.cxx#4 $)

>  <Rbt.Library>  (90) 
libRbt.so (2013.1, Build901 2013/11/27)

>  <Rbt.Parameter_File>  (90) 
/software/dev_tools/swtree/cs400_centos7.2_pe2016-08/rdock/2013.1/centos7.2_conda/build/data/scripts/dock.prm

>  <Rbt.Receptor>  (90) 
7lng.prm

>  <SCORE>  (90) 
-15.1134

>  <SCORE.INTER>  (90) 
-12.7087

>  <SCORE.INTER.CONST>  (90) 
1

>  <SCORE.INTER.POLAR>  (90) 
-2.75232

>  <SCORE.INTER.REPUL>  (90) 
0.00438128

>  <SCORE.INTER.ROT>  (90) 
4

>  <SCORE.INTER.VDW>  (90) 
-12.7727

>  <SCORE.INTER.norm>  (90) 
-0.605177

>  <SCORE.INTRA>  (90) 
-2.99256

>  <SCORE.INTRA.DIHEDRAL>  (90) 
-6.34093

>  <SCORE.INTRA.DIHEDRAL.0>  (90) 
10.6104

>  <SCORE.INTRA.POLAR>  (90) 
0

>  <SCORE.INTRA.POLAR.0>  (90) 
0

>  <SCORE.INTRA.REPUL>  (90) 
0

>  <SCORE.INTRA.REPUL.0>  (90) 
0

>  <SCORE.INTRA.VDW>  (90) 
0.177904

>  <SCORE.INTRA.VDW.0>  (90) 
-1.96818

>  <SCORE.INTRA.norm>  (90) 
-0.142503

>  <SCORE.RESTR>  (90) 
0

>  <SCORE.RESTR.CAVITY>  (90) 
0

>  <SCORE.RESTR.norm>  (90) 
0

>  <SCORE.SYSTEM>  (90) 
0.58788

>  <SCORE.SYSTEM.CONST>  (90) 
0

>  <SCORE.SYSTEM.DIHEDRAL>  (90) 
0.269841

>  <SCORE.SYSTEM.VDW>  (90) 
0.45296

>  <SCORE.SYSTEM.norm>  (90) 
0.0279943

>  <SCORE.heavy>  (90) 
21

>  <SCORE.norm>  (90) 
-0.719686

>  <Predicted_Rank>  (90) 
90.0

$$$$
7lng_h
     RDKit          3D

 24 26  0  0  0  0  0  0  0  0999 V2000
   15.0839   13.6020    8.2149 P   0  0  1  0  0  0  0  0  0  0  0  0
   16.5004   13.5107    8.6451 O   0  0  0  0  0  0  0  0  0  0  0  0
   14.1161   14.4629    8.9414 O   0  0  0  0  0  0  0  0  0  0  0  0
   14.2367   14.3366    4.3866 C   0  0  0  0  0  0  0  0  0  0  0  0
   15.4810   13.7844    3.9398 O   0  0  0  0  0  0  0  0  0  0  0  0
   14.0602   13.5805    5.6981 C   0  0  2  0  0  0  0  0  0  0  0  0
   15.0112   14.1054    6.6766 O   0  0  0  0  0  0  0  0  0  0  0  0
   14.4533   12.1720    5.3810 C   0  0  1  0  0  0  0  0  0  0  0  0
   13.4087   11.4064    4.7093 O   0  0  0  0  0  0  0  0  0  0  0  0
   15.6354   12.4261    4.4563 C   0  0  2  0  0  0  0  0  0  0  0  0
   17.5256    8.9628    7.6317 N   0  0  0  0  0  0  0  0  0  0  0  0
   16.2809    9.0153    6.9521 C   0  0  0  0  0  0  0  0  0  0  0  0
   15.3715    8.0417    7.1070 N   0  0  0  0  0  0  0  0  0  0  0  0
   16.0295   10.0694    6.1442 N   0  0  0  0  0  0  0  0  0  0  0  0
   16.9452   11.0462    5.9948 C   0  0  0  0  0  0  0  0  0  0  0  0
   18.1460   11.0229    6.6185 C   0  0  0  0  0  0  0  0  0  0  0  0
   18.4637   10.0127    7.4376 C   0  0  0  0  0  0  0  0  0  0  0  0
   19.5560    9.9745    8.0210 O   0  0  0  0  0  0  0  0  0  0  0  0
   18.8140   12.1249    6.2678 N   0  0  0  0  0  0  0  0  0  0  0  0
   18.0483   12.8181    5.4315 C   0  0  0  0  0  0  0  0  0  0  0  0
   16.8919   12.1439    5.2494 N   0  0  0  0  0  0  0  0  0  0  0  0
   12.6670   11.2839    5.3065 H   0  0  0  0  0  0  0  0  0  0  0  0
   15.3868    7.2349    6.4997 H   0  0  0  0  0  0  0  0  0  0  0  0
   14.6715    8.1157    7.8312 H   0  0  0  0  0  0  0  0  0  0  0  0
  1  2  1  1
  1  3  2  0
  1  7  1  0
  4  5  1  0
  4  6  1  0
  5 10  1  0
  6  7  1  1
  6  8  1  0
  8  9  1  6
  8 10  1  0
  9 22  1  0
 10 21  1  1
 11 12  1  0
 11 17  1  0
 12 13  1  0
 12 14  2  0
 13 23  1  0
 13 24  1  0
 14 15  1  0
 15 16  2  0
 15 21  1  0
 16 17  1  0
 16 19  1  0
 17 18  2  0
 19 20  2  0
 20 21  1  0
M  CHG  1   2  -1
M  END
>  <CHROM.0>  (91) 
-167.97251603

>  <CHROM.1>  (91) 
140.67792577,177.08163582,-66.11201739,164.57474576,-89.13390228,16.06447769
11.97087628,6.50237416,-2.67071812,0.81624684,-2.44551437

>  <Name>  (91) 
7lng_h

>  <RI>  (91) 
8.5107e+06

>  <Rbt.Current_Directory>  (91) 
/home/jta30/NA_complexes/7lng

>  <Rbt.Executable>  (91) 
rbdock ($Id: //depot/dev/client3/rdock/2013.1/src/exe/rbdock.cxx#4 $)

>  <Rbt.Library>  (91) 
libRbt.so (2013.1, Build901 2013/11/27)

>  <Rbt.Parameter_File>  (91) 
/software/dev_tools/swtree/cs400_centos7.2_pe2016-08/rdock/2013.1/centos7.2_conda/build/data/scripts/dock.prm

>  <Rbt.Receptor>  (91) 
7lng.prm

>  <SCORE>  (91) 
-16.8262

>  <SCORE.INTER>  (91) 
-12.9722

>  <SCORE.INTER.CONST>  (91) 
1

>  <SCORE.INTER.POLAR>  (91) 
-2.50767

>  <SCORE.INTER.REPUL>  (91) 
0

>  <SCORE.INTER.ROT>  (91) 
4

>  <SCORE.INTER.VDW>  (91) 
-13.8461

>  <SCORE.INTER.norm>  (91) 
-0.617724

>  <SCORE.INTRA>  (91) 
-4.05938

>  <SCORE.INTRA.DIHEDRAL>  (91) 
-7.0436

>  <SCORE.INTRA.DIHEDRAL.0>  (91) 
10.6104

>  <SCORE.INTRA.POLAR>  (91) 
0

>  <SCORE.INTRA.POLAR.0>  (91) 
0

>  <SCORE.INTRA.REPUL>  (91) 
0

>  <SCORE.INTRA.REPUL.0>  (91) 
0

>  <SCORE.INTRA.VDW>  (91) 
-0.537575

>  <SCORE.INTRA.VDW.0>  (91) 
-1.96818

>  <SCORE.INTRA.norm>  (91) 
-0.193304

>  <SCORE.RESTR>  (91) 
0

>  <SCORE.RESTR.CAVITY>  (91) 
0

>  <SCORE.RESTR.norm>  (91) 
0

>  <SCORE.SYSTEM>  (91) 
0.205408

>  <SCORE.SYSTEM.CONST>  (91) 
0

>  <SCORE.SYSTEM.DIHEDRAL>  (91) 
0.908559

>  <SCORE.SYSTEM.VDW>  (91) 
-0.248872

>  <SCORE.SYSTEM.norm>  (91) 
0.00978133

>  <SCORE.heavy>  (91) 
21

>  <SCORE.norm>  (91) 
-0.801246

>  <Predicted_Rank>  (91) 
91.0

$$$$
7lng_h
     RDKit          3D

 24 26  0  0  0  0  0  0  0  0999 V2000
   20.7165    9.7237    6.0510 P   0  0  1  0  0  0  0  0  0  0  0  0
   20.3384    8.5385    5.2435 O   0  0  0  0  0  0  0  0  0  0  0  0
   22.0834   10.2992    5.9743 O   0  0  0  0  0  0  0  0  0  0  0  0
   18.5947   13.0989    5.8949 C   0  0  0  0  0  0  0  0  0  0  0  0
   17.3746   12.3971    6.1622 O   0  0  0  0  0  0  0  0  0  0  0  0
   19.5991   12.1517    6.5405 C   0  0  2  0  0  0  0  0  0  0  0  0
   19.7276   10.9595    5.7041 O   0  0  0  0  0  0  0  0  0  0  0  0
   18.9620   11.7439    7.8315 C   0  0  1  0  0  0  0  0  0  0  0  0
   19.0971   12.7352    8.8935 O   0  0  0  0  0  0  0  0  0  0  0  0
   17.5138   11.6063    7.3832 C   0  0  2  0  0  0  0  0  0  0  0  0
   13.7791    8.4882    5.9764 N   0  0  0  0  0  0  0  0  0  0  0  0
   13.8526    9.9053    5.9756 C   0  0  0  0  0  0  0  0  0  0  0  0
   12.8156   10.6473    5.5598 N   0  0  0  0  0  0  0  0  0  0  0  0
   14.9915   10.4938    6.4043 N   0  0  0  0  0  0  0  0  0  0  0  0
   16.0289    9.7438    6.8239 C   0  0  0  0  0  0  0  0  0  0  0  0
   15.9974    8.3909    6.8277 C   0  0  0  0  0  0  0  0  0  0  0  0
   14.9014    7.7383    6.4212 C   0  0  0  0  0  0  0  0  0  0  0  0
   14.8509    6.5004    6.4206 O   0  0  0  0  0  0  0  0  0  0  0  0
   17.1679    7.9528    7.2987 N   0  0  0  0  0  0  0  0  0  0  0  0
   17.9205    9.0131    7.5735 C   0  0  0  0  0  0  0  0  0  0  0  0
   17.2206   10.1271    7.2671 N   0  0  0  0  0  0  0  0  0  0  0  0
   18.7463   12.3772    9.7124 H   0  0  0  0  0  0  0  0  0  0  0  0
   11.8769   10.2785    5.6134 H   0  0  0  0  0  0  0  0  0  0  0  0
   12.9737   11.5750    5.1931 H   0  0  0  0  0  0  0  0  0  0  0  0
  1  2  1  6
  1  3  2  0
  1  7  1  0
  4  5  1  0
  4  6  1  0
  5 10  1  0
  6  7  1  6
  6  8  1  0
  8  9  1  1
  8 10  1  0
  9 22  1  0
 10 21  1  6
 11 12  1  0
 11 17  1  0
 12 13  1  0
 12 14  2  0
 13 23  1  0
 13 24  1  0
 14 15  1  0
 15 16  2  0
 15 21  1  0
 16 17  1  0
 16 19  1  0
 17 18  2  0
 19 20  2  0
 20 21  1  0
M  CHG  1   2  -1
M  END
>  <CHROM.0>  (92) 
60.51038322

>  <CHROM.1>  (92) 
164.06374386,179.38538854,-174.42216317,-57.31813415,25.83018564,17.56699137
10.12463885,6.53809105,-0.33435536,-0.02028262,-2.98204896

>  <Name>  (92) 
7lng_h

>  <RI>  (92) 
8.5107e+06

>  <Rbt.Current_Directory>  (92) 
/home/jta30/NA_complexes/7lng

>  <Rbt.Executable>  (92) 
rbdock ($Id: //depot/dev/client3/rdock/2013.1/src/exe/rbdock.cxx#4 $)

>  <Rbt.Library>  (92) 
libRbt.so (2013.1, Build901 2013/11/27)

>  <Rbt.Parameter_File>  (92) 
/software/dev_tools/swtree/cs400_centos7.2_pe2016-08/rdock/2013.1/centos7.2_conda/build/data/scripts/dock.prm

>  <Rbt.Receptor>  (92) 
7lng.prm

>  <SCORE>  (92) 
-14.3742

>  <SCORE.INTER>  (92) 
-10.2874

>  <SCORE.INTER.CONST>  (92) 
1

>  <SCORE.INTER.POLAR>  (92) 
-0.879999

>  <SCORE.INTER.REPUL>  (92) 
0.00314961

>  <SCORE.INTER.ROT>  (92) 
4

>  <SCORE.INTER.VDW>  (92) 
-16.7111

>  <SCORE.INTER.norm>  (92) 
-0.489876

>  <SCORE.INTRA>  (92) 
-4.67611

>  <SCORE.INTRA.DIHEDRAL>  (92) 
-7.99261

>  <SCORE.INTRA.DIHEDRAL.0>  (92) 
10.6104

>  <SCORE.INTRA.POLAR>  (92) 
0

>  <SCORE.INTRA.POLAR.0>  (92) 
0

>  <SCORE.INTRA.REPUL>  (92) 
0

>  <SCORE.INTRA.REPUL.0>  (92) 
0

>  <SCORE.INTRA.VDW>  (92) 
-0.679807

>  <SCORE.INTRA.VDW.0>  (92) 
-1.96818

>  <SCORE.INTRA.norm>  (92) 
-0.222672

>  <SCORE.RESTR>  (92) 
0

>  <SCORE.RESTR.CAVITY>  (92) 
0

>  <SCORE.RESTR.norm>  (92) 
0

>  <SCORE.SYSTEM>  (92) 
0.589256

>  <SCORE.SYSTEM.CONST>  (92) 
0

>  <SCORE.SYSTEM.DIHEDRAL>  (92) 
0.2709

>  <SCORE.SYSTEM.VDW>  (92) 
0.453806

>  <SCORE.SYSTEM.norm>  (92) 
0.0280598

>  <SCORE.heavy>  (92) 
21

>  <SCORE.norm>  (92) 
-0.684488

>  <Predicted_Rank>  (92) 
92.0

$$$$
7lng_h
     RDKit          3D

 24 26  0  0  0  0  0  0  0  0999 V2000
   17.3926   14.6876    4.5448 P   0  0  1  0  0  0  0  0  0  0  0  0
   16.9691   13.2785    4.3586 O   0  0  0  0  0  0  0  0  0  0  0  0
   16.9666   15.7478    3.5960 O   0  0  0  0  0  0  0  0  0  0  0  0
   16.6946   15.3745    8.4122 C   0  0  0  0  0  0  0  0  0  0  0  0
   15.3932   14.7847    8.3064 O   0  0  0  0  0  0  0  0  0  0  0  0
   17.4051   14.6711    7.2619 C   0  0  2  0  0  0  0  0  0  0  0  0
   16.9103   15.2159    5.9986 O   0  0  0  0  0  0  0  0  0  0  0  0
   16.9614   13.2452    7.3557 C   0  0  1  0  0  0  0  0  0  0  0  0
   17.6721   12.4730    8.3691 O   0  0  0  0  0  0  0  0  0  0  0  0
   15.5005   13.4442    7.7344 C   0  0  2  0  0  0  0  0  0  0  0  0
   13.7429    9.5424    5.0258 N   0  0  0  0  0  0  0  0  0  0  0  0
   14.5036    9.5709    6.2234 C   0  0  0  0  0  0  0  0  0  0  0  0
   14.8835    8.4334    6.8238 N   0  0  0  0  0  0  0  0  0  0  0  0
   14.8393   10.7709    6.7476 N   0  0  0  0  0  0  0  0  0  0  0  0
   14.4578   11.9104    6.1385 C   0  0  0  0  0  0  0  0  0  0  0  0
   13.7229   11.9202    5.0022 C   0  0  0  0  0  0  0  0  0  0  0  0
   13.3570   10.7702    4.4228 C   0  0  0  0  0  0  0  0  0  0  0  0
   12.6875   10.7575    3.3805 O   0  0  0  0  0  0  0  0  0  0  0  0
   13.5160   13.1936    4.6564 N   0  0  0  0  0  0  0  0  0  0  0  0
   14.1018   13.9646    5.5666 C   0  0  0  0  0  0  0  0  0  0  0  0
   14.6765   13.1704    6.4960 N   0  0  0  0  0  0  0  0  0  0  0  0
   17.5184   11.5364    8.2244 H   0  0  0  0  0  0  0  0  0  0  0  0
   14.7157    8.3029    7.8111 H   0  0  0  0  0  0  0  0  0  0  0  0
   15.3374    7.7073    6.2882 H   0  0  0  0  0  0  0  0  0  0  0  0
  1  2  1  6
  1  3  2  0
  1  7  1  0
  4  5  1  0
  4  6  1  0
  5 10  1  0
  6  7  1  6
  6  8  1  0
  8  9  1  1
  8 10  1  0
  9 22  1  0
 10 21  1  6
 11 12  1  0
 11 17  1  0
 12 13  1  0
 12 14  2  0
 13 23  1  0
 13 24  1  0
 14 15  1  0
 15 16  2  0
 15 21  1  0
 16 17  1  0
 16 19  1  0
 17 18  2  0
 19 20  2  0
 20 21  1  0
M  CHG  1   2  -1
M  END
>  <CHROM.0>  (93) 
-176.15364172

>  <CHROM.1>  (93) 
64.67322953,-177.97370065,-164.97069064,-162.68690041,-129.90119712,15.52454550
12.84648900,5.94454747,0.33221914,-0.95125675,-0.96706397

>  <Name>  (93) 
7lng_h

>  <RI>  (93) 
8.5107e+06

>  <Rbt.Current_Directory>  (93) 
/home/jta30/NA_complexes/7lng

>  <Rbt.Executable>  (93) 
rbdock ($Id: //depot/dev/client3/rdock/2013.1/src/exe/rbdock.cxx#4 $)

>  <Rbt.Library>  (93) 
libRbt.so (2013.1, Build901 2013/11/27)

>  <Rbt.Parameter_File>  (93) 
/software/dev_tools/swtree/cs400_centos7.2_pe2016-08/rdock/2013.1/centos7.2_conda/build/data/scripts/dock.prm

>  <Rbt.Receptor>  (93) 
7lng.prm

>  <SCORE>  (93) 
-12.4769

>  <SCORE.INTER>  (93) 
-7.22756

>  <SCORE.INTER.CONST>  (93) 
1

>  <SCORE.INTER.POLAR>  (93) 
-1.6457

>  <SCORE.INTER.REPUL>  (93) 
0

>  <SCORE.INTER.ROT>  (93) 
4

>  <SCORE.INTER.VDW>  (93) 
-11.0322

>  <SCORE.INTER.norm>  (93) 
-0.34417

>  <SCORE.INTRA>  (93) 
-5.21484

>  <SCORE.INTRA.DIHEDRAL>  (93) 
-7.17159

>  <SCORE.INTRA.DIHEDRAL.0>  (93) 
10.6104

>  <SCORE.INTRA.POLAR>  (93) 
0

>  <SCORE.INTRA.POLAR.0>  (93) 
0

>  <SCORE.INTRA.REPUL>  (93) 
0

>  <SCORE.INTRA.REPUL.0>  (93) 
0

>  <SCORE.INTRA.VDW>  (93) 
-1.62905

>  <SCORE.INTRA.VDW.0>  (93) 
-1.96818

>  <SCORE.INTRA.norm>  (93) 
-0.248326

>  <SCORE.RESTR>  (93) 
0

>  <SCORE.RESTR.CAVITY>  (93) 
0

>  <SCORE.RESTR.norm>  (93) 
0

>  <SCORE.SYSTEM>  (93) 
-0.0344469

>  <SCORE.SYSTEM.CONST>  (93) 
0

>  <SCORE.SYSTEM.DIHEDRAL>  (93) 
0.337021

>  <SCORE.SYSTEM.VDW>  (93) 
-0.202958

>  <SCORE.SYSTEM.norm>  (93) 
-0.00164033

>  <SCORE.heavy>  (93) 
21

>  <SCORE.norm>  (93) 
-0.594136

>  <Predicted_Rank>  (93) 
93.0

$$$$
7lng_h
     RDKit          3D

 24 26  0  0  0  0  0  0  0  0999 V2000
   13.1635    7.6552    3.3522 P   0  0  1  0  0  0  0  0  0  0  0  0
   12.3280    8.0516    4.5116 O   0  0  0  0  0  0  0  0  0  0  0  0
   13.0983    8.4012    2.0697 O   0  0  0  0  0  0  0  0  0  0  0  0
   16.7709    7.2038    4.9916 C   0  0  0  0  0  0  0  0  0  0  0  0
   16.9132    8.6053    5.2528 O   0  0  0  0  0  0  0  0  0  0  0  0
   15.2518    7.0808    4.9929 C   0  0  2  0  0  0  0  0  0  0  0  0
   14.7287    7.6874    3.7699 O   0  0  0  0  0  0  0  0  0  0  0  0
   14.8036    7.9155    6.1511 C   0  0  1  0  0  0  0  0  0  0  0  0
   14.9361    7.2498    7.4426 O   0  0  0  0  0  0  0  0  0  0  0  0
   15.7710    9.0843    6.0285 C   0  0  2  0  0  0  0  0  0  0  0  0
   14.9710   14.0181    6.8456 N   0  0  0  0  0  0  0  0  0  0  0  0
   15.7958   13.0876    7.5293 C   0  0  0  0  0  0  0  0  0  0  0  0
   16.5261   13.4652    8.5890 N   0  0  0  0  0  0  0  0  0  0  0  0
   15.8300   11.8096    7.0904 N   0  0  0  0  0  0  0  0  0  0  0  0
   15.0920   11.4350    6.0274 C   0  0  0  0  0  0  0  0  0  0  0  0
   14.3034   12.2978    5.3455 C   0  0  0  0  0  0  0  0  0  0  0  0
   14.2156   13.5787    5.7247 C   0  0  0  0  0  0  0  0  0  0  0  0
   13.4967   14.3837    5.1163 O   0  0  0  0  0  0  0  0  0  0  0  0
   13.7093   11.6214    4.3590 N   0  0  0  0  0  0  0  0  0  0  0  0
   14.1280   10.3615    4.4174 C   0  0  0  0  0  0  0  0  0  0  0  0
   14.9974   10.2454    5.4448 N   0  0  0  0  0  0  0  0  0  0  0  0
   14.7099    7.8646    8.1445 H   0  0  0  0  0  0  0  0  0  0  0  0
   16.0984   13.9966    9.3337 H   0  0  0  0  0  0  0  0  0  0  0  0
   17.5038   13.2177    8.6420 H   0  0  0  0  0  0  0  0  0  0  0  0
  1  2  1  1
  1  3  2  0
  1  7  1  0
  4  5  1  0
  4  6  1  0
  5 10  1  0
  6  7  1  6
  6  8  1  0
  8  9  1  1
  8 10  1  0
  9 22  1  0
 10 21  1  6
 11 12  1  0
 11 17  1  0
 12 13  1  0
 12 14  2  0
 13 23  1  0
 13 24  1  0
 14 15  1  0
 15 16  2  0
 15 21  1  0
 16 17  1  0
 16 19  1  0
 17 18  2  0
 19 20  2  0
 20 21  1  0
M  CHG  1   2  -1
M  END
>  <CHROM.0>  (94) 
-179.28147134

>  <CHROM.1>  (94) 
47.67164041,175.21696158,174.80282819,-109.03139971,48.53357422,14.70287579
10.03777007,5.35177477,1.78621655,0.82902810,-2.88191862

>  <Name>  (94) 
7lng_h

>  <RI>  (94) 
8.5107e+06

>  <Rbt.Current_Directory>  (94) 
/home/jta30/NA_complexes/7lng

>  <Rbt.Executable>  (94) 
rbdock ($Id: //depot/dev/client3/rdock/2013.1/src/exe/rbdock.cxx#4 $)

>  <Rbt.Library>  (94) 
libRbt.so (2013.1, Build901 2013/11/27)

>  <Rbt.Parameter_File>  (94) 
/software/dev_tools/swtree/cs400_centos7.2_pe2016-08/rdock/2013.1/centos7.2_conda/build/data/scripts/dock.prm

>  <Rbt.Receptor>  (94) 
7lng.prm

>  <SCORE>  (94) 
-13.9463

>  <SCORE.INTER>  (94) 
-9.4571

>  <SCORE.INTER.CONST>  (94) 
1

>  <SCORE.INTER.POLAR>  (94) 
-2.7488

>  <SCORE.INTER.REPUL>  (94) 
0.038631

>  <SCORE.INTER.ROT>  (94) 
4

>  <SCORE.INTER.VDW>  (94) 
-9.70434

>  <SCORE.INTER.norm>  (94) 
-0.450338

>  <SCORE.INTRA>  (94) 
-4.4468

>  <SCORE.INTRA.DIHEDRAL>  (94) 
-7.89228

>  <SCORE.INTRA.DIHEDRAL.0>  (94) 
10.6104

>  <SCORE.INTRA.POLAR>  (94) 
0

>  <SCORE.INTRA.POLAR.0>  (94) 
0

>  <SCORE.INTRA.REPUL>  (94) 
0

>  <SCORE.INTRA.REPUL.0>  (94) 
0

>  <SCORE.INTRA.VDW>  (94) 
-0.500658

>  <SCORE.INTRA.VDW.0>  (94) 
-1.96818

>  <SCORE.INTRA.norm>  (94) 
-0.211752

>  <SCORE.RESTR>  (94) 
0

>  <SCORE.RESTR.CAVITY>  (94) 
0

>  <SCORE.RESTR.norm>  (94) 
0

>  <SCORE.SYSTEM>  (94) 
-0.0424253

>  <SCORE.SYSTEM.CONST>  (94) 
0

>  <SCORE.SYSTEM.DIHEDRAL>  (94) 
0.272068

>  <SCORE.SYSTEM.VDW>  (94) 
-0.178459

>  <SCORE.SYSTEM.norm>  (94) 
-0.00202025

>  <SCORE.heavy>  (94) 
21

>  <SCORE.norm>  (94) 
-0.664111

>  <Predicted_Rank>  (94) 
94.0

$$$$
7lng_h
     RDKit          3D

 24 26  0  0  0  0  0  0  0  0999 V2000
   13.5195    8.7553    3.4844 P   0  0  1  0  0  0  0  0  0  0  0  0
   12.3873    7.8629    3.1362 O   0  0  0  0  0  0  0  0  0  0  0  0
   13.4281    9.6991    4.6275 O   0  0  0  0  0  0  0  0  0  0  0  0
   16.3077    6.2541    4.8538 C   0  0  0  0  0  0  0  0  0  0  0  0
   17.2435    7.3102    5.1020 O   0  0  0  0  0  0  0  0  0  0  0  0
   14.9962    7.0221    4.9672 C   0  0  2  0  0  0  0  0  0  0  0  0
   14.8418    7.8686    3.7853 O   0  0  0  0  0  0  0  0  0  0  0  0
   15.1793    7.9146    6.1542 C   0  0  1  0  0  0  0  0  0  0  0  0
   14.9848    7.2403    7.4333 O   0  0  0  0  0  0  0  0  0  0  0  0
   16.6324    8.3240    5.9591 C   0  0  2  0  0  0  0  0  0  0  0  0
   18.0821   12.9777    7.3344 N   0  0  0  0  0  0  0  0  0  0  0  0
   18.2153   11.7313    7.9997 C   0  0  0  0  0  0  0  0  0  0  0  0
   18.8009   11.6538    9.2037 N   0  0  0  0  0  0  0  0  0  0  0  0
   17.7379   10.6211    7.3941 N   0  0  0  0  0  0  0  0  0  0  0  0
   17.1476   10.7051    6.1861 C   0  0  0  0  0  0  0  0  0  0  0  0
   17.0137   11.8747    5.5186 C   0  0  0  0  0  0  0  0  0  0  0  0
   17.4586   13.0164    6.0578 C   0  0  0  0  0  0  0  0  0  0  0  0
   17.3423   14.0981    5.4649 O   0  0  0  0  0  0  0  0  0  0  0  0
   16.3902   11.6217    4.3649 N   0  0  0  0  0  0  0  0  0  0  0  0
   16.1492   10.3160    4.3084 C   0  0  0  0  0  0  0  0  0  0  0  0
   16.6305    9.7417    5.4325 N   0  0  0  0  0  0  0  0  0  0  0  0
   14.7928    7.8911    8.1125 H   0  0  0  0  0  0  0  0  0  0  0  0
   19.5632   12.2744    9.4356 H   0  0  0  0  0  0  0  0  0  0  0  0
   18.4793   10.9747    9.8786 H   0  0  0  0  0  0  0  0  0  0  0  0
  1  2  1  1
  1  3  2  0
  1  7  1  0
  4  5  1  0
  4  6  1  0
  5 10  1  0
  6  7  1  6
  6  8  1  0
  8  9  1  1
  8 10  1  0
  9 22  1  0
 10 21  1  6
 11 12  1  0
 11 17  1  0
 12 13  1  0
 12 14  2  0
 13 23  1  0
 13 24  1  0
 14 15  1  0
 15 16  2  0
 15 21  1  0
 16 17  1  0
 16 19  1  0
 17 18  2  0
 19 20  2  0
 20 21  1  0
M  CHG  1   2  -1
M  END
>  <CHROM.0>  (95) 
60.12465975

>  <CHROM.1>  (95) 
-70.28446124,175.25518123,-159.21696781,-125.74948685,-33.82585759,16.01085689
9.71918341,5.53191519,2.55022615,0.80922989,2.88115166

>  <Name>  (95) 
7lng_h

>  <RI>  (95) 
8.5107e+06

>  <Rbt.Current_Directory>  (95) 
/home/jta30/NA_complexes/7lng

>  <Rbt.Executable>  (95) 
rbdock ($Id: //depot/dev/client3/rdock/2013.1/src/exe/rbdock.cxx#4 $)

>  <Rbt.Library>  (95) 
libRbt.so (2013.1, Build901 2013/11/27)

>  <Rbt.Parameter_File>  (95) 
/software/dev_tools/swtree/cs400_centos7.2_pe2016-08/rdock/2013.1/centos7.2_conda/build/data/scripts/dock.prm

>  <Rbt.Receptor>  (95) 
7lng.prm

>  <SCORE>  (95) 
-14.8686

>  <SCORE.INTER>  (95) 
-11.6132

>  <SCORE.INTER.CONST>  (95) 
1

>  <SCORE.INTER.POLAR>  (95) 
-3.62639

>  <SCORE.INTER.REPUL>  (95) 
0

>  <SCORE.INTER.ROT>  (95) 
4

>  <SCORE.INTER.VDW>  (95) 
-8.68351

>  <SCORE.INTER.norm>  (95) 
-0.553011

>  <SCORE.INTRA>  (95) 
-3.84358

>  <SCORE.INTRA.DIHEDRAL>  (95) 
-6.29428

>  <SCORE.INTRA.DIHEDRAL.0>  (95) 
10.6104

>  <SCORE.INTRA.POLAR>  (95) 
0

>  <SCORE.INTRA.POLAR.0>  (95) 
0

>  <SCORE.INTRA.REPUL>  (95) 
0

>  <SCORE.INTRA.REPUL.0>  (95) 
0

>  <SCORE.INTRA.VDW>  (95) 
-0.696436

>  <SCORE.INTRA.VDW.0>  (95) 
-1.96818

>  <SCORE.INTRA.norm>  (95) 
-0.183028

>  <SCORE.RESTR>  (95) 
0

>  <SCORE.RESTR.CAVITY>  (95) 
0

>  <SCORE.RESTR.norm>  (95) 
0

>  <SCORE.SYSTEM>  (95) 
0.588158

>  <SCORE.SYSTEM.CONST>  (95) 
0

>  <SCORE.SYSTEM.DIHEDRAL>  (95) 
0.269782

>  <SCORE.SYSTEM.VDW>  (95) 
0.453267

>  <SCORE.SYSTEM.norm>  (95) 
0.0280075

>  <SCORE.heavy>  (95) 
21

>  <SCORE.norm>  (95) 
-0.708031

>  <Predicted_Rank>  (95) 
95.0

$$$$
7lng_h
     RDKit          3D

 24 26  0  0  0  0  0  0  0  0999 V2000
   14.1791    5.0926    4.9550 P   0  0  1  0  0  0  0  0  0  0  0  0
   15.2625    4.8533    3.9709 O   0  0  0  0  0  0  0  0  0  0  0  0
   14.2242    4.4826    6.3083 O   0  0  0  0  0  0  0  0  0  0  0  0
   16.3356    7.3651    5.5363 C   0  0  0  0  0  0  0  0  0  0  0  0
   16.2086    8.2196    4.3933 O   0  0  0  0  0  0  0  0  0  0  0  0
   14.9194    7.4460    6.0937 C   0  0  2  0  0  0  0  0  0  0  0  0
   14.0260    6.6832    5.2234 O   0  0  0  0  0  0  0  0  0  0  0  0
   14.5491    8.8915    5.9832 C   0  0  1  0  0  0  0  0  0  0  0  0
   15.0989    9.7231    7.0484 O   0  0  0  0  0  0  0  0  0  0  0  0
   15.1782    9.2266    4.6382 C   0  0  2  0  0  0  0  0  0  0  0  0
   12.0254   12.6213    2.5923 N   0  0  0  0  0  0  0  0  0  0  0  0
   13.0666   12.7794    3.5434 C   0  0  0  0  0  0  0  0  0  0  0  0
   13.3477   13.9842    4.0612 N   0  0  0  0  0  0  0  0  0  0  0  0
   13.7706   11.6880    3.9185 N   0  0  0  0  0  0  0  0  0  0  0  0
   13.4819   10.4797    3.3975 C   0  0  0  0  0  0  0  0  0  0  0  0
   12.5037   10.2945    2.4809 C   0  0  0  0  0  0  0  0  0  0  0  0
   11.7617   11.3282    2.0648 C   0  0  0  0  0  0  0  0  0  0  0  0
   10.8590   11.1793    1.2294 O   0  0  0  0  0  0  0  0  0  0  0  0
   12.4694    8.9957    2.1716 N   0  0  0  0  0  0  0  0  0  0  0  0
   13.4165    8.3831    2.8743 C   0  0  0  0  0  0  0  0  0  0  0  0
   14.0562    9.3045    3.6270 N   0  0  0  0  0  0  0  0  0  0  0  0
   14.7636    9.4211    7.8959 H   0  0  0  0  0  0  0  0  0  0  0  0
   13.6238   14.7429    3.4545 H   0  0  0  0  0  0  0  0  0  0  0  0
   13.2832   14.1325    5.0582 H   0  0  0  0  0  0  0  0  0  0  0  0
  1  2  1  1
  1  3  2  0
  1  7  1  0
  4  5  1  0
  4  6  1  0
  5 10  1  0
  6  7  1  6
  6  8  1  0
  8  9  1  1
  8 10  1  0
  9 22  1  0
 10 21  1  6
 11 12  1  0
 11 17  1  0
 12 13  1  0
 12 14  2  0
 13 23  1  0
 13 24  1  0
 14 15  1  0
 15 16  2  0
 15 21  1  0
 16 17  1  0
 16 19  1  0
 17 18  2  0
 19 20  2  0
 20 21  1  0
M  CHG  1   2  -1
M  END
>  <CHROM.0>  (96) 
-60.90242862

>  <CHROM.1>  (96) 
-78.68705419,61.29303451,-61.07266810,-148.79030259,-59.72635931,13.90210110
8.89989881,4.20810587,1.03079274,0.88548233,-3.08707187

>  <Name>  (96) 
7lng_h

>  <RI>  (96) 
8.5107e+06

>  <Rbt.Current_Directory>  (96) 
/home/jta30/NA_complexes/7lng

>  <Rbt.Executable>  (96) 
rbdock ($Id: //depot/dev/client3/rdock/2013.1/src/exe/rbdock.cxx#4 $)

>  <Rbt.Library>  (96) 
libRbt.so (2013.1, Build901 2013/11/27)

>  <Rbt.Parameter_File>  (96) 
/software/dev_tools/swtree/cs400_centos7.2_pe2016-08/rdock/2013.1/centos7.2_conda/build/data/scripts/dock.prm

>  <Rbt.Receptor>  (96) 
7lng.prm

>  <SCORE>  (96) 
-13.315

>  <SCORE.INTER>  (96) 
-8.8705

>  <SCORE.INTER.CONST>  (96) 
1

>  <SCORE.INTER.POLAR>  (96) 
-2.6293

>  <SCORE.INTER.REPUL>  (96) 
0.028413

>  <SCORE.INTER.ROT>  (96) 
4

>  <SCORE.INTER.VDW>  (96) 
-9.47294

>  <SCORE.INTER.norm>  (96) 
-0.422405

>  <SCORE.INTRA>  (96) 
-4.41955

>  <SCORE.INTRA.DIHEDRAL>  (96) 
-8.13336

>  <SCORE.INTRA.DIHEDRAL.0>  (96) 
10.6104

>  <SCORE.INTRA.POLAR>  (96) 
0

>  <SCORE.INTRA.POLAR.0>  (96) 
0

>  <SCORE.INTRA.REPUL>  (96) 
0

>  <SCORE.INTRA.REPUL.0>  (96) 
0

>  <SCORE.INTRA.VDW>  (96) 
-0.352868

>  <SCORE.INTRA.VDW.0>  (96) 
-1.96818

>  <SCORE.INTRA.norm>  (96) 
-0.210455

>  <SCORE.RESTR>  (96) 
0

>  <SCORE.RESTR.CAVITY>  (96) 
0

>  <SCORE.RESTR.norm>  (96) 
0

>  <SCORE.SYSTEM>  (96) 
-0.0249299

>  <SCORE.SYSTEM.CONST>  (96) 
0

>  <SCORE.SYSTEM.DIHEDRAL>  (96) 
0.273428

>  <SCORE.SYSTEM.VDW>  (96) 
-0.161644

>  <SCORE.SYSTEM.norm>  (96) 
-0.00118714

>  <SCORE.heavy>  (96) 
21

>  <SCORE.norm>  (96) 
-0.634047

>  <Predicted_Rank>  (96) 
96.0

$$$$
7lng_h
     RDKit          3D

 24 26  0  0  0  0  0  0  0  0999 V2000
   13.9659    5.1298    4.8844 P   0  0  1  0  0  0  0  0  0  0  0  0
   15.1886    4.9593    4.0624 O   0  0  0  0  0  0  0  0  0  0  0  0
   13.8155    4.4345    6.1880 O   0  0  0  0  0  0  0  0  0  0  0  0
   15.7833    7.8901    4.6345 C   0  0  0  0  0  0  0  0  0  0  0  0
   14.9911    8.8018    3.8638 O   0  0  0  0  0  0  0  0  0  0  0  0
   14.8050    7.5627    5.7564 C   0  0  2  0  0  0  0  0  0  0  0  0
   13.7513    6.6991    5.2259 O   0  0  0  0  0  0  0  0  0  0  0  0
   14.1873    8.8767    6.1181 C   0  0  1  0  0  0  0  0  0  0  0  0
   15.0235    9.7019    6.9832 O   0  0  0  0  0  0  0  0  0  0  0  0
   14.0431    9.4942    4.7342 C   0  0  2  0  0  0  0  0  0  0  0  0
   10.4202   12.2622    2.5291 N   0  0  0  0  0  0  0  0  0  0  0  0
   11.7894   12.5489    2.7671 C   0  0  0  0  0  0  0  0  0  0  0  0
   12.3210   13.7223    2.3942 N   0  0  0  0  0  0  0  0  0  0  0  0
   12.5487   11.6132    3.3797 N   0  0  0  0  0  0  0  0  0  0  0  0
   12.0088   10.4374    3.7551 C   0  0  0  0  0  0  0  0  0  0  0  0
   10.7104   10.1265    3.5341 C   0  0  0  0  0  0  0  0  0  0  0  0
    9.8963   11.0053    2.9363 C   0  0  0  0  0  0  0  0  0  0  0  0
    8.7038   10.7416    2.7281 O   0  0  0  0  0  0  0  0  0  0  0  0
   10.4908    8.9029    4.0223 N   0  0  0  0  0  0  0  0  0  0  0  0
   11.6344    8.4538    4.5290 C   0  0  0  0  0  0  0  0  0  0  0  0
   12.5826    9.3996    4.3527 N   0  0  0  0  0  0  0  0  0  0  0  0
   14.8826    9.4507    7.8991 H   0  0  0  0  0  0  0  0  0  0  0  0
   13.0289   14.1606    2.9659 H   0  0  0  0  0  0  0  0  0  0  0  0
   12.0134   14.1675    1.5414 H   0  0  0  0  0  0  0  0  0  0  0  0
  1  2  1  1
  1  3  2  0
  1  7  1  0
  4  5  1  0
  4  6  1  0
  5 10  1  0
  6  7  1  6
  6  8  1  0
  8  9  1  1
  8 10  1  0
  9 22  1  0
 10 21  1  6
 11 12  1  0
 11 17  1  0
 12 13  1  0
 12 14  2  0
 13 23  1  0
 13 24  1  0
 14 15  1  0
 15 16  2  0
 15 21  1  0
 16 17  1  0
 16 19  1  0
 17 18  2  0
 19 20  2  0
 20 21  1  0
M  CHG  1   2  -1
M  END
>  <CHROM.0>  (97) 
-177.41711768

>  <CHROM.1>  (97) 
-49.27333558,74.52870345,-85.13292056,-102.32806218,144.13378118,12.92790879
8.89327747,4.32323876,1.01025078,0.36098176,2.97627123

>  <Name>  (97) 
7lng_h

>  <RI>  (97) 
8.5107e+06

>  <Rbt.Current_Directory>  (97) 
/home/jta30/NA_complexes/7lng

>  <Rbt.Executable>  (97) 
rbdock ($Id: //depot/dev/client3/rdock/2013.1/src/exe/rbdock.cxx#4 $)

>  <Rbt.Library>  (97) 
libRbt.so (2013.1, Build901 2013/11/27)

>  <Rbt.Parameter_File>  (97) 
/software/dev_tools/swtree/cs400_centos7.2_pe2016-08/rdock/2013.1/centos7.2_conda/build/data/scripts/dock.prm

>  <Rbt.Receptor>  (97) 
7lng.prm

>  <SCORE>  (97) 
-12.5611

>  <SCORE.INTER>  (97) 
-10.3031

>  <SCORE.INTER.CONST>  (97) 
1

>  <SCORE.INTER.POLAR>  (97) 
-2.35174

>  <SCORE.INTER.REPUL>  (97) 
0.0115125

>  <SCORE.INTER.ROT>  (97) 
4

>  <SCORE.INTER.VDW>  (97) 
-11.7647

>  <SCORE.INTER.norm>  (97) 
-0.490623

>  <SCORE.INTRA>  (97) 
-2.21451

>  <SCORE.INTRA.DIHEDRAL>  (97) 
-4.38665

>  <SCORE.INTRA.DIHEDRAL.0>  (97) 
10.6104

>  <SCORE.INTRA.POLAR>  (97) 
0

>  <SCORE.INTRA.POLAR.0>  (97) 
0

>  <SCORE.INTRA.REPUL>  (97) 
0

>  <SCORE.INTRA.REPUL.0>  (97) 
0

>  <SCORE.INTRA.VDW>  (97) 
-0.0211839

>  <SCORE.INTRA.VDW.0>  (97) 
-1.96818

>  <SCORE.INTRA.norm>  (97) 
-0.105453

>  <SCORE.RESTR>  (97) 
0

>  <SCORE.RESTR.CAVITY>  (97) 
0

>  <SCORE.RESTR.norm>  (97) 
0

>  <SCORE.SYSTEM>  (97) 
-0.043526

>  <SCORE.SYSTEM.CONST>  (97) 
0

>  <SCORE.SYSTEM.DIHEDRAL>  (97) 
0.30012

>  <SCORE.SYSTEM.VDW>  (97) 
-0.193586

>  <SCORE.SYSTEM.norm>  (97) 
-0.00207267

>  <SCORE.heavy>  (97) 
21

>  <SCORE.norm>  (97) 
-0.598148

>  <Predicted_Rank>  (97) 
97.0

$$$$
7lng_h
     RDKit          3D

 24 26  0  0  0  0  0  0  0  0999 V2000
   16.5642    9.6570    3.0033 P   0  0  1  0  0  0  0  0  0  0  0  0
   15.4844   10.4842    2.4122 O   0  0  0  0  0  0  0  0  0  0  0  0
   17.5093   10.2265    3.9972 O   0  0  0  0  0  0  0  0  0  0  0  0
   14.5205    7.0394    5.2141 C   0  0  0  0  0  0  0  0  0  0  0  0
   15.6962    6.6483    5.9334 O   0  0  0  0  0  0  0  0  0  0  0  0
   14.9160    8.4503    4.7950 C   0  0  2  0  0  0  0  0  0  0  0  0
   15.9219    8.3634    3.7377 O   0  0  0  0  0  0  0  0  0  0  0  0
   15.5684    9.0382    6.0064 C   0  0  1  0  0  0  0  0  0  0  0  0
   14.6237    9.5176    7.0096 O   0  0  0  0  0  0  0  0  0  0  0  0
   16.3418    7.8268    6.5080 C   0  0  2  0  0  0  0  0  0  0  0  0
   20.2040   10.9002    7.6425 N   0  0  0  0  0  0  0  0  0  0  0  0
   18.8772   10.8557    8.1439 C   0  0  0  0  0  0  0  0  0  0  0  0
   18.4635   11.7307    9.0723 N   0  0  0  0  0  0  0  0  0  0  0  0
   18.0365    9.9118    7.6650 N   0  0  0  0  0  0  0  0  0  0  0  0
   18.4564    9.0374    6.7301 C   0  0  0  0  0  0  0  0  0  0  0  0
   19.7171    9.0440    6.2380 C   0  0  0  0  0  0  0  0  0  0  0  0
   20.6043    9.9526    6.6618 C   0  0  0  0  0  0  0  0  0  0  0  0
   21.7619    9.9780    6.2212 O   0  0  0  0  0  0  0  0  0  0  0  0
   19.8122    8.0642    5.3355 N   0  0  0  0  0  0  0  0  0  0  0  0
   18.6352    7.4500    5.2734 C   0  0  0  0  0  0  0  0  0  0  0  0
   17.7947    8.0439    6.1484 N   0  0  0  0  0  0  0  0  0  0  0  0
   15.0435    9.5130    7.8730 H   0  0  0  0  0  0  0  0  0  0  0  0
   18.3250   12.7004    8.8264 H   0  0  0  0  0  0  0  0  0  0  0  0
   18.2903   11.4195   10.0174 H   0  0  0  0  0  0  0  0  0  0  0  0
  1  2  1  1
  1  3  2  0
  1  7  1  0
  4  5  1  0
  4  6  1  0
  5 10  1  0
  6  7  1  6
  6  8  1  0
  8  9  1  1
  8 10  1  0
  9 22  1  0
 10 21  1  6
 11 12  1  0
 11 17  1  0
 12 13  1  0
 12 14  2  0
 13 23  1  0
 13 24  1  0
 14 15  1  0
 15 16  2  0
 15 21  1  0
 16 17  1  0
 16 19  1  0
 17 18  2  0
 19 20  2  0
 20 21  1  0
M  CHG  1   2  -1
M  END
>  <CHROM.0>  (98) 
60.09245042

>  <CHROM.1>  (98) 
-56.53488910,178.36039688,155.07811938,-174.57833953,70.81713463,17.47268072
9.20536460,5.70516654,-2.56063409,0.32029824,1.52896701

>  <Name>  (98) 
7lng_h

>  <RI>  (98) 
8.5107e+06

>  <Rbt.Current_Directory>  (98) 
/home/jta30/NA_complexes/7lng

>  <Rbt.Executable>  (98) 
rbdock ($Id: //depot/dev/client3/rdock/2013.1/src/exe/rbdock.cxx#4 $)

>  <Rbt.Library>  (98) 
libRbt.so (2013.1, Build901 2013/11/27)

>  <Rbt.Parameter_File>  (98) 
/software/dev_tools/swtree/cs400_centos7.2_pe2016-08/rdock/2013.1/centos7.2_conda/build/data/scripts/dock.prm

>  <Rbt.Receptor>  (98) 
7lng.prm

>  <SCORE>  (98) 
-13.1879

>  <SCORE.INTER>  (98) 
-9.4557

>  <SCORE.INTER.CONST>  (98) 
1

>  <SCORE.INTER.POLAR>  (98) 
-2.28247

>  <SCORE.INTER.REPUL>  (98) 
0

>  <SCORE.INTER.ROT>  (98) 
4

>  <SCORE.INTER.VDW>  (98) 
-11.0953

>  <SCORE.INTER.norm>  (98) 
-0.450271

>  <SCORE.INTRA>  (98) 
-4.32034

>  <SCORE.INTRA.DIHEDRAL>  (98) 
-5.64924

>  <SCORE.INTRA.DIHEDRAL.0>  (98) 
10.6104

>  <SCORE.INTRA.POLAR>  (98) 
0

>  <SCORE.INTRA.POLAR.0>  (98) 
0

>  <SCORE.INTRA.REPUL>  (98) 
0

>  <SCORE.INTRA.REPUL.0>  (98) 
0

>  <SCORE.INTRA.VDW>  (98) 
-1.49572

>  <SCORE.INTRA.VDW.0>  (98) 
-1.96818

>  <SCORE.INTRA.norm>  (98) 
-0.205731

>  <SCORE.RESTR>  (98) 
0

>  <SCORE.RESTR.CAVITY>  (98) 
0

>  <SCORE.RESTR.norm>  (98) 
0

>  <SCORE.SYSTEM>  (98) 
0.588104

>  <SCORE.SYSTEM.CONST>  (98) 
0

>  <SCORE.SYSTEM.DIHEDRAL>  (98) 
0.26975

>  <SCORE.SYSTEM.VDW>  (98) 
0.453229

>  <SCORE.SYSTEM.norm>  (98) 
0.028005

>  <SCORE.heavy>  (98) 
21

>  <SCORE.norm>  (98) 
-0.627997

>  <Predicted_Rank>  (98) 
98.0

$$$$
7lng_h
     RDKit          3D

 24 26  0  0  0  0  0  0  0  0999 V2000
   15.9766    8.8156    3.1013 P   0  0  1  0  0  0  0  0  0  0  0  0
   14.8236    7.9050    3.3038 O   0  0  0  0  0  0  0  0  0  0  0  0
   15.8319   10.0753    2.3282 O   0  0  0  0  0  0  0  0  0  0  0  0
   17.1872    9.1945    6.8841 C   0  0  0  0  0  0  0  0  0  0  0  0
   16.1365   10.1269    7.1659 O   0  0  0  0  0  0  0  0  0  0  0  0
   16.5634    8.4255    5.7256 C   0  0  2  0  0  0  0  0  0  0  0  0
   16.5669    9.2778    4.5378 O   0  0  0  0  0  0  0  0  0  0  0  0
   15.1405    8.2090    6.1349 C   0  0  1  0  0  0  0  0  0  0  0  0
   14.9584    7.1030    7.0688 O   0  0  0  0  0  0  0  0  0  0  0  0
   14.8464    9.5476    6.7975 C   0  0  2  0  0  0  0  0  0  0  0  0
   15.0007   13.8589    4.1445 N   0  0  0  0  0  0  0  0  0  0  0  0
   15.9634   13.2621    4.9992 C   0  0  0  0  0  0  0  0  0  0  0  0
   17.1464   13.8537    5.2211 N   0  0  0  0  0  0  0  0  0  0  0  0
   15.6629   12.0828    5.5875 N   0  0  0  0  0  0  0  0  0  0  0  0
   14.4718   11.4945    5.3637 C   0  0  0  0  0  0  0  0  0  0  0  0
   13.5352   12.0297    4.5464 C   0  0  0  0  0  0  0  0  0  0  0  0
   13.7605   13.1979    3.9326 C   0  0  0  0  0  0  0  0  0  0  0  0
   12.9147   13.7065    3.1836 O   0  0  0  0  0  0  0  0  0  0  0  0
   12.4785   11.2130    4.5404 N   0  0  0  0  0  0  0  0  0  0  0  0
   12.7549   10.1811    5.3310 C   0  0  0  0  0  0  0  0  0  0  0  0
   13.9979   10.3465    5.8335 N   0  0  0  0  0  0  0  0  0  0  0  0
   15.2865    7.3574    7.9345 H   0  0  0  0  0  0  0  0  0  0  0  0
   17.2203   14.8606    5.1960 H   0  0  0  0  0  0  0  0  0  0  0  0
   17.9634   13.2919    5.4134 H   0  0  0  0  0  0  0  0  0  0  0  0
  1  2  1  1
  1  3  2  0
  1  7  1  0
  4  5  1  0
  4  6  1  0
  5 10  1  0
  6  7  1  6
  6  8  1  0
  8  9  1  1
  8 10  1  0
  9 22  1  0
 10 21  1  6
 11 12  1  0
 11 17  1  0
 12 13  1  0
 12 14  2  0
 13 23  1  0
 13 24  1  0
 14 15  1  0
 15 16  2  0
 15 21  1  0
 16 17  1  0
 16 19  1  0
 17 18  2  0
 19 20  2  0
 20 21  1  0
M  CHG  1   2  -1
M  END
>  <CHROM.0>  (99) 
-61.10772869

>  <CHROM.1>  (99) 
33.05775988,-179.63675045,73.07287624,1.26204076,30.43578377,15.13450628
10.51128494,4.91975117,1.06691747,1.04696181,-2.97015578

>  <Name>  (99) 
7lng_h

>  <RI>  (99) 
8.5107e+06

>  <Rbt.Current_Directory>  (99) 
/home/jta30/NA_complexes/7lng

>  <Rbt.Executable>  (99) 
rbdock ($Id: //depot/dev/client3/rdock/2013.1/src/exe/rbdock.cxx#4 $)

>  <Rbt.Library>  (99) 
libRbt.so (2013.1, Build901 2013/11/27)

>  <Rbt.Parameter_File>  (99) 
/software/dev_tools/swtree/cs400_centos7.2_pe2016-08/rdock/2013.1/centos7.2_conda/build/data/scripts/dock.prm

>  <Rbt.Receptor>  (99) 
7lng.prm

>  <SCORE>  (99) 
-11.2678

>  <SCORE.INTER>  (99) 
-6.46193

>  <SCORE.INTER.CONST>  (99) 
1

>  <SCORE.INTER.POLAR>  (99) 
-1.56329

>  <SCORE.INTER.REPUL>  (99) 
0

>  <SCORE.INTER.ROT>  (99) 
4

>  <SCORE.INTER.VDW>  (99) 
-10.5468

>  <SCORE.INTER.norm>  (99) 
-0.307711

>  <SCORE.INTRA>  (99) 
-4.78044

>  <SCORE.INTRA.DIHEDRAL>  (99) 
-7.01975

>  <SCORE.INTRA.DIHEDRAL.0>  (99) 
10.6104

>  <SCORE.INTRA.POLAR>  (99) 
0

>  <SCORE.INTRA.POLAR.0>  (99) 
0

>  <SCORE.INTRA.REPUL>  (99) 
0

>  <SCORE.INTRA.REPUL.0>  (99) 
0

>  <SCORE.INTRA.VDW>  (99) 
-1.27057

>  <SCORE.INTRA.VDW.0>  (99) 
-1.96818

>  <SCORE.INTRA.norm>  (99) 
-0.22764

>  <SCORE.RESTR>  (99) 
0

>  <SCORE.RESTR.CAVITY>  (99) 
0

>  <SCORE.RESTR.norm>  (99) 
0

>  <SCORE.SYSTEM>  (99) 
-0.025392

>  <SCORE.SYSTEM.CONST>  (99) 
0

>  <SCORE.SYSTEM.DIHEDRAL>  (99) 
0.275311

>  <SCORE.SYSTEM.VDW>  (99) 
-0.163048

>  <SCORE.SYSTEM.norm>  (99) 
-0.00120914

>  <SCORE.heavy>  (99) 
21

>  <SCORE.norm>  (99) 
-0.53656

>  <Predicted_Rank>  (99) 
99.0

$$$$
7lng_h
     RDKit          3D

 24 26  0  0  0  0  0  0  0  0999 V2000
   14.5427    7.8665    6.1034 P   0  0  1  0  0  0  0  0  0  0  0  0
   14.6079    9.2584    6.6114 O   0  0  0  0  0  0  0  0  0  0  0  0
   13.4336    7.4238    5.2207 O   0  0  0  0  0  0  0  0  0  0  0  0
   18.2589    7.3117    4.7735 C   0  0  0  0  0  0  0  0  0  0  0  0
   18.2217    8.6167    4.1834 O   0  0  0  0  0  0  0  0  0  0  0  0
   17.2235    7.4843    5.8785 C   0  0  2  0  0  0  0  0  0  0  0  0
   15.8924    7.5232    5.2752 O   0  0  0  0  0  0  0  0  0  0  0  0
   17.5076    8.8341    6.4585 C   0  0  1  0  0  0  0  0  0  0  0  0
   18.6248    8.8482    7.3968 O   0  0  0  0  0  0  0  0  0  0  0  0
   17.8402    9.6059    5.1893 C   0  0  2  0  0  0  0  0  0  0  0  0
   15.2818   13.5526    7.0675 N   0  0  0  0  0  0  0  0  0  0  0  0
   16.4459   12.8932    7.5407 C   0  0  0  0  0  0  0  0  0  0  0  0
   17.0514   13.2921    8.6689 N   0  0  0  0  0  0  0  0  0  0  0  0
   16.9327   11.8515    6.8299 N   0  0  0  0  0  0  0  0  0  0  0  0
   16.3186   11.4529    5.6990 C   0  0  0  0  0  0  0  0  0  0  0  0
   15.2140   12.0654    5.2132 C   0  0  0  0  0  0  0  0  0  0  0  0
   14.6723   13.1013    5.8655 C   0  0  0  0  0  0  0  0  0  0  0  0
   13.6592   13.6733    5.4397 O   0  0  0  0  0  0  0  0  0  0  0  0
   14.8530   11.4355    4.0921 N   0  0  0  0  0  0  0  0  0  0  0  0
   15.7232   10.4545    3.8762 C   0  0  0  0  0  0  0  0  0  0  0  0
   16.6428   10.4711    4.8657 N   0  0  0  0  0  0  0  0  0  0  0  0
   18.5682    8.0830    7.9738 H   0  0  0  0  0  0  0  0  0  0  0  0
   17.9806   12.9622    8.8874 H   0  0  0  0  0  0  0  0  0  0  0  0
   16.5779   13.9227    9.2999 H   0  0  0  0  0  0  0  0  0  0  0  0
  1  2  1  6
  1  3  2  0
  1  7  1  0
  4  5  1  0
  4  6  1  0
  5 10  1  0
  6  7  1  6
  6  8  1  0
  8  9  1  1
  8 10  1  0
  9 22  1  0
 10 21  1  6
 11 12  1  0
 11 17  1  0
 12 13  1  0
 12 14  2  0
 13 23  1  0
 13 24  1  0
 14 15  1  0
 15 16  2  0
 15 21  1  0
 16 17  1  0
 16 19  1  0
 17 18  2  0
 19 20  2  0
 20 21  1  0
M  CHG  1   2  -1
M  END
>  <CHROM.0>  (100) 
-179.35441239

>  <CHROM.1>  (100) 
64.06972729,-172.65599013,-42.91091875,-174.86249837,-166.26830846,16.05556803
10.13374487,5.86511351,1.36289483,0.31299301,-2.87298575

>  <Name>  (100) 
7lng_h

>  <RI>  (100) 
8.5107e+06

>  <Rbt.Current_Directory>  (100) 
/home/jta30/NA_complexes/7lng

>  <Rbt.Executable>  (100) 
rbdock ($Id: //depot/dev/client3/rdock/2013.1/src/exe/rbdock.cxx#4 $)

>  <Rbt.Library>  (100) 
libRbt.so (2013.1, Build901 2013/11/27)

>  <Rbt.Parameter_File>  (100) 
/software/dev_tools/swtree/cs400_centos7.2_pe2016-08/rdock/2013.1/centos7.2_conda/build/data/scripts/dock.prm

>  <Rbt.Receptor>  (100) 
7lng.prm

>  <SCORE>  (100) 
-11.9635

>  <SCORE.INTER>  (100) 
-7.10536

>  <SCORE.INTER.CONST>  (100) 
1

>  <SCORE.INTER.POLAR>  (100) 
-1.05741

>  <SCORE.INTER.REPUL>  (100) 
0

>  <SCORE.INTER.ROT>  (100) 
4

>  <SCORE.INTER.VDW>  (100) 
-12.9102

>  <SCORE.INTER.norm>  (100) 
-0.338351

>  <SCORE.INTRA>  (100) 
-4.81608

>  <SCORE.INTRA.DIHEDRAL>  (100) 
-6.63285

>  <SCORE.INTRA.DIHEDRAL.0>  (100) 
10.6104

>  <SCORE.INTRA.POLAR>  (100) 
0

>  <SCORE.INTRA.POLAR.0>  (100) 
0

>  <SCORE.INTRA.REPUL>  (100) 
0

>  <SCORE.INTRA.REPUL.0>  (100) 
0

>  <SCORE.INTRA.VDW>  (100) 
-1.49966

>  <SCORE.INTRA.VDW.0>  (100) 
-1.96818

>  <SCORE.INTRA.norm>  (100) 
-0.229337

>  <SCORE.RESTR>  (100) 
0

>  <SCORE.RESTR.CAVITY>  (100) 
0

>  <SCORE.RESTR.norm>  (100) 
0

>  <SCORE.SYSTEM>  (100) 
-0.0420278

>  <SCORE.SYSTEM.CONST>  (100) 
0

>  <SCORE.SYSTEM.DIHEDRAL>  (100) 
0.271614

>  <SCORE.SYSTEM.VDW>  (100) 
-0.177835

>  <SCORE.SYSTEM.norm>  (100) 
-0.00200133

>  <SCORE.heavy>  (100) 
21

>  <SCORE.norm>  (100) 
-0.569689

>  <Predicted_Rank>  (100) 
100.0

$$$$
