7lng_h
  PyMOL2.5          3D                             0

 30 32  0  0  0  0  0  0  0  0999 V2000
   11.5990   13.2500    3.7280 P   0  0  0  0  0  0  0  0  0  0  0  0
   11.4800   14.6210    3.1750 O   0  5  0  0  0  0  0  0  0  0  0  0
   11.5690   12.0600    2.8400 O   0  0  0  0  0  0  0  0  0  0  0  0
   14.1590   14.8280    5.8120 C   0  0  0  0  0  0  0  0  0  0  0  0
   14.7190   13.8000    6.6380 O   0  0  0  0  0  0  0  0  0  0  0  0
   14.0710   14.0890    4.4820 C   0  0  0  0  0  0  0  0  0  0  0  0
   12.9850   13.1130    4.5560 O   0  0  0  0  0  0  0  0  0  0  0  0
   15.3610   13.3380    4.3780 C   0  0  0  0  0  0  0  0  0  0  0  0
   16.4850   14.1570    3.9370 O   0  0  0  0  0  0  0  0  0  0  0  0
   15.5310   12.8970    5.8250 C   0  0  0  0  0  0  0  0  0  0  0  0
   17.6590    8.4360    6.9300 N   0  0  0  0  0  0  0  0  0  0  0  0
   18.1910    9.7510    6.9680 C   0  0  0  0  0  0  0  0  0  0  0  0
   19.4620    9.9680    7.3370 N   0  0  0  0  0  0  0  0  0  0  0  0
   17.3890   10.7830    6.6230 N   0  0  0  0  0  0  0  0  0  0  0  0
   16.1140   10.5590    6.2500 C   0  0  0  0  0  0  0  0  0  0  0  0
   15.5710    9.3200    6.2130 C   0  0  0  0  0  0  0  0  0  0  0  0
   16.3060    8.2490    6.5370 C   0  0  0  0  0  0  0  0  0  0  0  0
   15.8290    7.1060    6.5060 O   0  0  0  0  0  0  0  0  0  0  0  0
   14.3050    9.4370    5.8040 N   0  0  0  0  0  0  0  0  0  0  0  0
   14.0590   10.7270    5.6000 C   0  0  0  0  0  0  0  0  0  0  0  0
   15.1770   11.4280    5.8890 N   0  0  0  0  0  0  0  0  0  0  0  0
   13.1770   15.1410    6.1660 H   0  0  0  0  0  0  0  0  0  0  0  0
   13.8970   14.7620    3.6430 H   0  0  0  0  0  0  0  0  0  0  0  0
   15.3400   12.5390    3.6370 H   0  0  0  0  0  0  0  0  0  0  0  0
   16.7020   14.7970    4.6190 H   0  0  0  0  0  0  0  0  0  0  0  0
   16.5440   12.9690    6.2210 H   0  0  0  0  0  0  0  0  0  0  0  0
   19.8280   10.9090    7.3590 H   0  0  0  0  0  0  0  0  0  0  0  0
   20.0530    9.1900    7.5930 H   0  0  0  0  0  0  0  0  0  0  0  0
   13.1140   11.1480    5.2570 H   0  0  0  0  0  0  0  0  0  0  0  0
   14.7340   15.7540    5.7830 H   0  0  0  0  0  0  0  0  0  0  0  0
  1  2  1  0  0  0  0
  1  3  2  0  0  0  0
  1  7  1  0  0  0  0
  4  5  1  0  0  0  0
  4  6  1  0  0  0  0
  4 22  1  0  0  0  0
  4 30  1  0  0  0  0
  5 10  1  0  0  0  0
  6  7  1  0  0  0  0
  6  8  1  0  0  0  0
  6 23  1  0  0  0  0
  8  9  1  0  0  0  0
  8 10  1  0  0  0  0
  8 24  1  0  0  0  0
  9 25  1  0  0  0  0
 10 21  1  0  0  0  0
 10 26  1  0  0  0  0
 11 12  4  0  0  0  0
 11 17  4  0  0  0  0
 12 13  1  0  0  0  0
 12 14  4  0  0  0  0
 13 27  1  0  0  0  0
 13 28  1  0  0  0  0
 14 15  4  0  0  0  0
 15 16  4  0  0  0  0
 15 21  4  0  0  0  0
 16 17  4  0  0  0  0
 16 19  4  0  0  0  0
 17 18  2  0  0  0  0
 19 20  4  0  0  0  0
 20 21  4  0  0  0  0
 20 29  1  0  0  0  0
M  END
$$$$
