# created with PyMOL 2.5.8
@<TRIPOS>MOLECULE
1uts_h
930 1001 29             
SMALL
USER_CHARGES
@<TRIPOS>ATOM
1	 C5'	-15.508	-7.056	13.918	C.3	1	G17	0.000	
2	 O5'	-14.325	-6.370	13.485	O.3	1	G17	0.000	
3	 C4'	-15.347	-8.568	13.871	C.3	1	G17	0.000	
4	 O4'	-15.223	-9.054	12.545	O.3	1	G17	0.000	
5	 C3'	-14.075	-9.010	14.564	C.3	1	G17	0.000	
6	 O3'	-14.373	-9.198	15.952	O.3	1	G17	0.000	
7	 C2'	-13.770	-10.358	13.918	C.3	1	G17	0.000	
8	 O2'	-14.230	-11.442	14.731	O.3	1	G17	0.000	
9	 C1'	-14.524	-10.304	12.581	C.3	1	G17	0.000	
10	  N1	-11.482	-13.396	9.867	N.pl3	1	G17	0.000	
11	  C2	-12.237	-13.675	10.989	C.2	1	G17	0.000	
12	  N2	-12.179	-14.926	11.441	N.pl3	1	G17	0.000	
13	  N3	-12.994	-12.768	11.617	N.2	1	G17	0.000	
14	  C4	-12.932	-11.552	11.027	C.2	1	G17	0.000	
15	  C5	-12.203	-11.188	9.906	C.2	1	G17	0.000	
16	  C6	-11.402	-12.157	9.244	C.2	1	G17	0.000	
17	  O6	-10.709	-12.015	8.256	O.2	1	G17	0.000	
18	  N7	-12.401	-9.836	9.607	N.2	1	G17	0.000	
19	  C8	-13.215	-9.477	10.541	C.2	1	G17	0.000	
20	  N9	-13.598	-10.418	11.439	N.pl3	1	G17	0.000	
21	HO2'	-14.356	-11.100	15.620	 H	1	G17	0.000	
22	HO5'	-14.599	-5.693	12.863	 H	1	G17	0.000	
23	  H1	-10.955	-14.116	9.461	 H	1	G17	0.000	
24	  H8	-13.583	-8.453	10.605	 H	1	G17	0.000	
25	 H1'	-15.244	-11.121	12.543	 H	1	G17	0.000	
26	 H2'	-12.697	-10.442	13.731	 H	1	G17	0.000	
27	 H21	-11.608	-15.610	10.965	 H	1	G17	0.000	
28	 H3'	-13.263	-8.296	14.412	 H	1	G17	0.000	
29	 H22	-12.707	-15.193	12.260	 H	1	G17	0.000	
30	 H4'	-16.205	-9.041	14.348	 H	1	G17	0.000	
31	 H5'	-16.329	-6.807	13.260	 H	1	G17	0.000	
32	H5''	-15.742	-6.734	14.943	 H	1	G17	0.000	
33	   P	-13.260	-8.932	17.089	P.3	2	G18	0.000	
34	 C5'	-12.653	-11.222	18.247	C.3	2	G18	0.000	
35	 O5'	-12.439	-10.319	17.151	O.3	2	G18	0.000	
36	 C4'	-11.741	-12.442	18.211	C.3	2	G18	0.000	
37	 O4'	-12.049	-13.318	17.122	O.3	2	G18	0.000	
38	 C3'	-10.292	-12.046	17.997	C.3	2	G18	0.000	
39	 O3'	-9.699	-11.771	19.271	O.3	2	G18	0.000	
40	 C2'	-9.698	-13.325	17.443	C.3	2	G18	0.000	
41	 O2'	-9.397	-14.261	18.484	O.3	2	G18	0.000	
42	 C1'	-10.827	-13.824	16.548	C.3	2	G18	0.000	
43	  N1	-8.160	-14.160	12.195	N.pl3	2	G18	0.000	
44	  C2	-8.023	-14.887	13.361	C.2	2	G18	0.000	
45	  N2	-7.064	-15.811	13.372	N.pl3	2	G18	0.000	
46	  N3	-8.794	-14.709	14.440	N.2	2	G18	0.000	
47	  C4	-9.719	-13.740	14.253	C.2	2	G18	0.000	
48	  C5	-9.923	-12.966	13.121	C.2	2	G18	0.000	
49	  C6	-9.100	-13.161	11.980	C.2	2	G18	0.000	
50	  O6	-9.140	-12.580	10.913	O.2	2	G18	0.000	
51	  N7	-10.978	-12.070	13.322	N.2	2	G18	0.000	
52	  C8	-11.332	-12.350	14.531	C.2	2	G18	0.000	
53	  N9	-10.654	-13.324	15.176	N.pl3	2	G18	0.000	
54	 OP1	-13.958	-8.753	18.381	O.co2	2	G18	0.000	
55	 OP2	-12.345	-7.878	16.596	O.co2	2	G18	0.000	
56	HO2'	-10.212	-14.715	18.705	 H	2	G18	0.000	
57	  H1	-7.550	-14.343	11.450	 H	2	G18	0.000	
58	  H8	-12.142	-11.816	15.024	 H	2	G18	0.000	
59	 H1'	-10.843	-14.913	16.545	 H	2	G18	0.000	
60	 H2'	-8.814	-13.103	16.843	 H	2	G18	0.000	
61	 H21	-6.482	-15.944	12.557	 H	2	G18	0.000	
62	 H3'	-10.196	-11.212	17.299	 H	2	G18	0.000	
63	 H22	-6.920	-16.381	14.192	 H	2	G18	0.000	
64	 H4'	-11.832	-12.991	19.147	 H	2	G18	0.000	
65	 H5'	-13.669	-11.592	18.210	 H	2	G18	0.000	
66	H5''	-12.499	-10.669	19.185	 H	2	G18	0.000	
67	   P	-8.531	-10.668	19.414	P.3	3	C19	0.000	
68	 C5'	-6.619	-12.489	19.455	C.3	3	C19	0.000	
69	 O5'	-7.255	-11.409	18.768	O.3	3	C19	0.000	
70	 C4'	-5.447	-13.052	18.654	C.3	3	C19	0.000	
71	 O4'	-5.882	-13.685	17.448	O.3	3	C19	0.000	
72	 C3'	-4.500	-11.957	18.200	C.3	3	C19	0.000	
73	 O3'	-3.528	-11.727	19.224	O.3	3	C19	0.000	
74	 C2'	-3.819	-12.596	17.008	C.3	3	C19	0.000	
75	 O2'	-2.757	-13.467	17.412	O.3	3	C19	0.000	
76	 C1'	-4.972	-13.368	16.375	C.3	3	C19	0.000	
77	  N1	-5.639	-12.550	15.343	N.pl3	3	C19	0.000	
78	  C2	-5.037	-12.470	14.094	C.2	3	C19	0.000	
79	  O2	-4.000	-13.066	13.874	O.2	3	C19	0.000	
80	  N3	-5.639	-11.711	13.137	N.2	3	C19	0.000	
81	  C4	-6.781	-11.058	13.394	C.2	3	C19	0.000	
82	  N4	-7.348	-10.330	12.432	N.pl3	3	C19	0.000	
83	  C5	-7.402	-11.137	14.679	C.2	3	C19	0.000	
84	  C6	-6.799	-11.889	15.619	C.2	3	C19	0.000	
85	 OP1	-8.265	-10.461	20.855	O.co2	3	C19	0.000	
86	 OP2	-8.879	-9.514	18.555	O.co2	3	C19	0.000	
87	HO2'	-3.002	-13.843	18.260	 H	3	C19	0.000	
88	  H5	-8.329	-10.606	14.891	 H	3	C19	0.000	
89	  H6	-7.236	-11.961	16.614	 H	3	C19	0.000	
90	 H1'	-4.596	-14.288	15.928	 H	3	C19	0.000	
91	 H2'	-3.459	-11.824	16.322	 H	3	C19	0.000	
92	 H3'	-5.034	-11.047	17.924	 H	3	C19	0.000	
93	 H4'	-4.905	-13.775	19.262	 H	3	C19	0.000	
94	 H41	-6.915	-10.270	11.523	 H	3	C19	0.000	
95	 H5'	-7.347	-13.281	19.625	 H	3	C19	0.000	
96	 H42	-8.213	-9.841	12.612	 H	3	C19	0.000	
97	H5''	-6.252	-12.131	20.417	 H	3	C19	0.000	
98	   P	-2.792	-10.300	19.333	P.3	4	A20	0.000	
99	 C5'	-0.964	-11.182	17.646	C.3	4	A20	0.000	
100	 O5'	-1.990	-10.231	17.939	O.3	4	A20	0.000	
101	 C4'	-0.398	-10.983	16.243	C.3	4	A20	0.000	
102	 O4'	-1.368	-11.264	15.245	O.3	4	A20	0.000	
103	 C3'	-0.006	-9.542	15.997	C.3	4	A20	0.000	
104	 O3'	1.338	-9.351	16.450	O.3	4	A20	0.000	
105	 C2'	-0.026	-9.444	14.480	C.3	4	A20	0.000	
106	 O2'	1.249	-9.771	13.917	O.3	4	A20	0.000	
107	 C1'	-1.093	-10.472	14.080	C.3	4	A20	0.000	
108	  N1	-3.258	-7.740	10.317	N.2	4	A20	0.000	
109	  C2	-2.032	-8.255	10.435	C.2	4	A20	0.000	
110	  N3	-1.552	-8.962	11.455	N.2	4	A20	0.000	
111	  C4	-2.479	-9.120	12.420	C.2	4	A20	0.000	
112	  C5	-3.770	-8.643	12.419	C.2	4	A20	0.000	
113	  C6	-4.166	-7.912	11.296	C.2	4	A20	0.000	
114	  N6	-5.386	-7.391	11.160	N.pl3	4	A20	0.000	
115	  N7	-4.436	-9.007	13.593	N.2	4	A20	0.000	
116	  C8	-3.520	-9.669	14.216	C.2	4	A20	0.000	
117	  N9	-2.316	-9.798	13.608	N.pl3	4	A20	0.000	
118	 OP1	-1.806	-10.368	20.434	O.co2	4	A20	0.000	
119	 OP2	-3.825	-9.241	19.329	O.co2	4	A20	0.000	
120	HO2'	1.263	-10.720	13.773	 H	4	A20	0.000	
121	  H2	-1.350	-8.083	9.601	 H	4	A20	0.000	
122	  H8	-3.706	-10.103	15.198	 H	4	A20	0.000	
123	 H1'	-0.702	-11.113	13.294	 H	4	A20	0.000	
124	 H2'	-0.340	-8.443	14.174	 H	4	A20	0.000	
125	 H3'	-0.702	-8.843	16.461	 H	4	A20	0.000	
126	 H4'	0.465	-11.629	16.094	 H	4	A20	0.000	
127	 H5'	-1.378	-12.187	17.722	 H	4	A20	0.000	
128	 H61	-5.623	-6.870	10.328	 H	4	A20	0.000	
129	 H62	-6.072	-7.517	11.890	 H	4	A20	0.000	
130	H5''	-0.159	-11.072	18.372	 H	4	A20	0.000	
131	   P	1.846	-7.890	16.897	P.3	5	G21	0.000	
132	 C5'	2.837	-7.563	14.466	C.3	5	G21	0.000	
133	 O5'	1.944	-7.108	15.492	O.3	5	G21	0.000	
134	 C4'	2.714	-6.751	13.186	C.3	5	G21	0.000	
135	 O4'	1.508	-7.040	12.493	O.3	5	G21	0.000	
136	 C3'	2.639	-5.266	13.476	C.3	5	G21	0.000	
137	 O3'	3.972	-4.749	13.538	O.3	5	G21	0.000	
138	 C2'	1.966	-4.712	12.231	C.3	5	G21	0.000	
139	 O2'	2.930	-4.338	11.239	O.3	5	G21	0.000	
140	 C1'	1.100	-5.881	11.752	C.3	5	G21	0.000	
141	  N1	-3.191	-3.944	9.758	N.pl3	5	G21	0.000	
142	  C2	-1.933	-4.045	9.199	C.2	5	G21	0.000	
143	  N2	-1.799	-3.570	7.961	N.pl3	5	G21	0.000	
144	  N3	-0.881	-4.577	9.830	N.2	5	G21	0.000	
145	  C4	-1.195	-5.004	11.075	C.2	5	G21	0.000	
146	  C5	-2.425	-4.942	11.712	C.2	5	G21	0.000	
147	  C6	-3.537	-4.375	11.033	C.2	5	G21	0.000	
148	  O6	-4.678	-4.243	11.433	O.2	5	G21	0.000	
149	  N7	-2.342	-5.488	12.997	N.2	5	G21	0.000	
150	  C8	-1.100	-5.835	13.055	C.2	5	G21	0.000	
151	  N9	-0.329	-5.595	11.968	N.pl3	5	G21	0.000	
152	 OP1	3.213	-8.024	17.449	O.co2	5	G21	0.000	
153	 OP2	0.782	-7.258	17.707	O.co2	5	G21	0.000	
154	HO2'	2.780	-4.895	10.471	 H	5	G21	0.000	
155	  H1	-3.910	-3.537	9.232	 H	5	G21	0.000	
156	  H8	-0.684	-6.301	13.950	 H	5	G21	0.000	
157	 H1'	1.280	-6.052	10.691	 H	5	G21	0.000	
158	 H2'	1.332	-3.862	12.496	 H	5	G21	0.000	
159	 H21	-2.594	-3.167	7.485	 H	5	G21	0.000	
160	 H3'	2.066	-5.054	14.379	 H	5	G21	0.000	
161	 H22	-0.902	-3.613	7.498	 H	5	G21	0.000	
162	 H4'	3.560	-6.956	12.532	 H	5	G21	0.000	
163	 H5'	2.601	-8.587	14.213	 H	5	G21	0.000	
164	H5''	3.865	-7.504	14.851	 H	5	G21	0.000	
165	   P	4.235	-3.200	13.892	P.3	6	A22	0.000	
166	 C5'	4.178	-1.904	11.592	C.3	6	A22	0.000	
167	 O5'	3.458	-2.430	12.710	O.3	6	A22	0.000	
168	 C4'	3.260	-1.658	10.397	C.3	6	A22	0.000	
169	 O4'	1.946	-2.144	10.645	O.3	6	A22	0.000	
170	 C3'	3.094	-0.174	10.129	C.3	6	A22	0.000	
171	 O3'	4.076	0.219	9.169	O.3	6	A22	0.000	
172	 C2'	1.723	-0.072	9.474	C.3	6	A22	0.000	
173	 O2'	1.831	-0.051	8.047	O.3	6	A22	0.000	
174	 C1'	0.988	-1.326	9.957	C.3	6	A22	0.000	
175	  N1	-3.445	1.214	10.378	N.2	6	A22	0.000	
176	  C2	-2.610	1.066	9.346	C.2	6	A22	0.000	
177	  N3	-1.471	0.380	9.327	N.2	6	A22	0.000	
178	  C4	-1.220	-0.190	10.523	C.2	6	A22	0.000	
179	  C5	-1.995	-0.115	11.656	C.2	6	A22	0.000	
180	  C6	-3.172	0.634	11.562	C.2	6	A22	0.000	
181	  N6	-4.013	0.794	12.582	N.pl3	6	A22	0.000	
182	  N7	-1.413	-0.836	12.705	N.2	6	A22	0.000	
183	  C8	-0.343	-1.291	12.145	C.2	6	A22	0.000	
184	  N9	-0.130	-0.965	10.846	N.pl3	6	A22	0.000	
185	 OP1	5.683	-2.931	13.746	O.co2	6	A22	0.000	
186	 OP2	3.553	-2.895	15.170	O.co2	6	A22	0.000	
187	HO2'	0.939	-0.052	7.692	 H	6	A22	0.000	
188	  H2	-2.892	1.561	8.416	 H	6	A22	0.000	
189	  H8	0.363	-1.913	12.696	 H	6	A22	0.000	
190	 H1'	0.601	-1.871	9.096	 H	6	A22	0.000	
191	 H2'	1.206	0.821	9.834	 H	6	A22	0.000	
192	 H3'	3.157	0.415	11.045	 H	6	A22	0.000	
193	 H4'	3.666	-2.149	9.514	 H	6	A22	0.000	
194	 H5'	4.954	-2.613	11.303	 H	6	A22	0.000	
195	 H61	-3.813	0.365	13.475	 H	6	A22	0.000	
196	 H62	-4.852	1.344	12.463	 H	6	A22	0.000	
197	H5''	4.647	-0.962	11.880	 H	6	A22	0.000	
198	   P	4.718	1.694	9.216	P.3	7	U23	0.000	
199	 C5'	3.623	4.035	9.744	C.3	7	U23	0.000	
200	 O5'	3.455	2.622	9.592	O.3	7	U23	0.000	
201	 C4'	2.320	4.729	10.133	C.3	7	U23	0.000	
202	 O4'	1.406	3.823	10.743	O.3	7	U23	0.000	
203	 C3'	2.581	5.831	11.158	C.3	7	U23	0.000	
204	 O3'	1.833	6.984	10.763	O.3	7	U23	0.000	
205	 C2'	1.996	5.316	12.475	C.3	7	U23	0.000	
206	 O2'	0.885	6.116	12.895	O.3	7	U23	0.000	
207	 C1'	1.559	3.883	12.156	C.3	7	U23	0.000	
208	  N1	2.539	2.867	12.623	N.pl3	7	U23	0.000	
209	  C2	2.043	1.610	12.922	C.2	7	U23	0.000	
210	  O2	0.868	1.331	12.791	O.2	7	U23	0.000	
211	  N3	2.967	0.677	13.357	N.pl3	7	U23	0.000	
212	  C4	4.326	0.885	13.517	C.2	7	U23	0.000	
213	  O4	5.047	-0.011	13.911	O.2	7	U23	0.000	
214	  C5	4.760	2.221	13.180	C.2	7	U23	0.000	
215	  C6	3.876	3.153	12.753	C.2	7	U23	0.000	
216	 OP1	5.161	2.050	7.849	O.co2	7	U23	0.000	
217	 OP2	5.680	1.744	10.340	O.co2	7	U23	0.000	
218	HO2'	0.635	6.671	12.152	 H	7	U23	0.000	
219	  H3	2.626	-0.215	13.575	 H	7	U23	0.000	
220	  H5	5.815	2.481	13.270	 H	7	U23	0.000	
221	  H6	4.234	4.151	12.505	 H	7	U23	0.000	
222	 H1'	0.594	3.696	12.633	 H	7	U23	0.000	
223	 H2'	2.772	5.304	13.244	 H	7	U23	0.000	
224	 H3'	3.644	6.053	11.248	 H	7	U23	0.000	
225	 H4'	1.860	5.160	9.244	 H	7	U23	0.000	
226	 H5'	3.978	4.451	8.802	 H	7	U23	0.000	
227	H5''	4.368	4.221	10.517	 H	7	U23	0.000	
228	   P	2.240	7.807	9.440	P.3	8	C24	0.000	
229	 C5'	3.908	9.263	10.879	C.3	8	C24	0.000	
230	 O5'	3.715	8.344	9.801	O.3	8	C24	0.000	
231	 C4'	5.252	9.049	11.567	C.3	8	C24	0.000	
232	 O4'	5.612	7.665	11.579	O.3	8	C24	0.000	
233	 C3'	6.370	9.787	10.822	C.3	8	C24	0.000	
234	 O3'	7.088	10.580	11.772	O.3	8	C24	0.000	
235	 C2'	7.303	8.686	10.327	C.3	8	C24	0.000	
236	 O2'	8.676	9.084	10.412	O.3	8	C24	0.000	
237	 C1'	6.997	7.539	11.273	C.3	8	C24	0.000	
238	  N1	7.295	6.236	10.647	N.pl3	8	C24	0.000	
239	  C2	8.567	5.709	10.829	C.2	8	C24	0.000	
240	  O2	9.391	6.311	11.491	O.2	8	C24	0.000	
241	  N3	8.857	4.511	10.251	N.2	8	C24	0.000	
242	  C4	7.941	3.857	9.525	C.2	8	C24	0.000	
243	  N4	8.261	2.688	8.971	N.pl3	8	C24	0.000	
244	  C5	6.630	4.396	9.335	C.2	8	C24	0.000	
245	  C6	6.350	5.582	9.910	C.2	8	C24	0.000	
246	 OP1	1.337	8.975	9.326	O.co2	8	C24	0.000	
247	 OP2	2.356	6.851	8.317	O.co2	8	C24	0.000	
248	HO2'	9.040	8.686	11.206	 H	8	C24	0.000	
249	  H5	5.884	3.869	8.742	 H	8	C24	0.000	
250	  H6	5.360	6.019	9.790	 H	8	C24	0.000	
251	 H1'	7.584	7.650	12.185	 H	8	C24	0.000	
252	 H2'	7.041	8.407	9.302	 H	8	C24	0.000	
253	 H3'	5.982	10.389	10.001	 H	8	C24	0.000	
254	 H4'	5.197	9.416	12.591	 H	8	C24	0.000	
255	 H41	9.185	2.302	9.101	 H	8	C24	0.000	
256	 H5'	3.110	9.126	11.609	 H	8	C24	0.000	
257	 H42	7.578	2.187	8.420	 H	8	C24	0.000	
258	H5''	3.864	10.280	10.491	 H	8	C24	0.000	
259	   P	6.662	12.107	12.051	P.3	9	U25	0.000	
260	 C5'	6.081	13.141	14.410	C.3	9	U25	0.000	
261	 O5'	6.888	12.248	13.638	O.3	9	U25	0.000	
262	 C4'	5.954	12.671	15.855	C.3	9	U25	0.000	
263	 O4'	5.873	13.784	16.752	O.3	9	U25	0.000	
264	 C3'	4.678	11.853	16.052	C.3	9	U25	0.000	
265	 O3'	4.985	10.748	16.908	O.3	9	U25	0.000	
266	 C2'	3.744	12.791	16.801	C.3	9	U25	0.000	
267	 O2'	2.866	12.072	17.674	O.3	9	U25	0.000	
268	 C1'	4.714	13.660	17.580	C.3	9	U25	0.000	
269	  N1	4.126	14.980	17.876	N.pl3	9	U25	0.000	
270	  C2	4.115	15.393	19.195	C.2	9	U25	0.000	
271	  O2	4.570	14.709	20.090	O.2	9	U25	0.000	
272	  N3	3.557	16.635	19.438	N.pl3	9	U25	0.000	
273	  C4	3.016	17.486	18.491	C.2	9	U25	0.000	
274	  O4	2.548	18.560	18.817	O.2	9	U25	0.000	
275	  C5	3.069	16.974	17.140	C.2	9	U25	0.000	
276	  C6	3.611	15.761	16.877	C.2	9	U25	0.000	
277	 OP1	5.214	12.242	11.775	O.co2	9	U25	0.000	
278	 OP2	7.630	12.990	11.365	O.co2	9	U25	0.000	
279	HO2'	2.940	11.141	17.450	 H	9	U25	0.000	
280	  H3	3.543	16.940	20.369	 H	9	U25	0.000	
281	  H5	2.668	17.573	16.322	 H	9	U25	0.000	
282	  H6	3.639	15.400	15.849	 H	9	U25	0.000	
283	 H1'	4.983	13.162	18.511	 H	9	U25	0.000	
284	 H2'	3.179	13.402	16.094	 H	9	U25	0.000	
285	 H3'	4.253	11.528	15.102	 H	9	U25	0.000	
286	 H4'	6.820	12.062	16.116	 H	9	U25	0.000	
287	 H5'	5.088	13.196	13.965	 H	9	U25	0.000	
288	H5''	6.534	14.131	14.396	 H	9	U25	0.000	
289	   P	4.807	9.236	16.386	P.3	10	G26	0.000	
290	 C5'	2.619	7.785	16.058	C.3	10	G26	0.000	
291	 O5'	3.207	9.057	16.366	O.3	10	G26	0.000	
292	 C4'	1.554	7.876	14.972	C.3	10	G26	0.000	
293	 O4'	0.390	7.141	15.325	O.3	10	G26	0.000	
294	 C3'	1.063	9.301	14.785	C.3	10	G26	0.000	
295	 O3'	1.872	9.944	13.797	O.3	10	G26	0.000	
296	 C2'	-0.332	9.121	14.207	C.3	10	G26	0.000	
297	 O2'	-0.315	9.198	12.777	O.3	10	G26	0.000	
298	 C1'	-0.750	7.728	14.683	C.3	10	G26	0.000	
299	  N1	-5.785	7.068	15.253	N.pl3	10	G26	0.000	
300	  C2	-4.992	6.863	14.141	C.2	10	G26	0.000	
301	  N2	-5.613	6.430	13.045	N.pl3	10	G26	0.000	
302	  N3	-3.672	7.074	14.123	N.2	10	G26	0.000	
303	  C4	-3.206	7.510	15.314	C.2	10	G26	0.000	
304	  C5	-3.927	7.744	16.476	C.2	10	G26	0.000	
305	  C6	-5.331	7.516	16.488	C.2	10	G26	0.000	
306	  O6	-6.110	7.663	17.408	O.2	10	G26	0.000	
307	  N7	-3.083	8.192	17.497	N.2	10	G26	0.000	
308	  C8	-1.936	8.202	16.904	C.2	10	G26	0.000	
309	  N9	-1.896	7.814	15.605	N.pl3	10	G26	0.000	
310	 OP1	5.363	8.323	17.410	O.co2	10	G26	0.000	
311	 OP2	5.298	9.167	14.991	O.co2	10	G26	0.000	
312	HO2'	0.590	9.373	12.511	 H	10	G26	0.000	
313	  H1	-6.746	6.893	15.187	 H	10	G26	0.000	
314	  H8	-1.032	8.512	17.428	 H	10	G26	0.000	
315	 H1'	-1.028	7.122	13.821	 H	10	G26	0.000	
316	 H2'	-1.007	9.873	14.625	 H	10	G26	0.000	
317	 H21	-6.609	6.270	13.059	 H	10	G26	0.000	
318	 H3'	1.045	9.853	15.725	 H	10	G26	0.000	
319	 H22	-5.086	6.260	12.200	 H	10	G26	0.000	
320	 H4'	1.949	7.491	14.033	 H	10	G26	0.000	
321	 H5'	2.133	7.391	16.941	 H	10	G26	0.000	
322	H5''	3.419	7.100	15.741	 H	10	G26	0.000	
323	   P	1.672	11.511	13.470	P.3	11	A27	0.000	
324	 C5'	0.722	11.426	11.010	C.3	11	A27	0.000	
325	 O5'	0.453	11.515	12.412	O.3	11	A27	0.000	
326	 C4'	-0.548	11.529	10.163	C.3	11	A27	0.000	
327	 O4'	-1.422	10.420	10.363	O.3	11	A27	0.000	
328	 C3'	-1.388	12.727	10.543	C.3	11	A27	0.000	
329	 O3'	-0.884	13.883	9.870	O.3	11	A27	0.000	
330	 C2'	-2.733	12.360	9.944	C.3	11	A27	0.000	
331	 O2'	-2.786	12.658	8.544	O.3	11	A27	0.000	
332	 C1'	-2.791	10.854	10.200	C.3	11	A27	0.000	
333	  N1	-7.471	10.676	12.302	N.2	11	A27	0.000	
334	  C2	-7.077	10.983	11.065	C.2	11	A27	0.000	
335	  N3	-5.831	11.003	10.599	N.2	11	A27	0.000	
336	  C4	-4.945	10.662	11.556	C.2	11	A27	0.000	
337	  C5	-5.221	10.328	12.862	C.2	11	A27	0.000	
338	  C6	-6.568	10.341	13.241	C.2	11	A27	0.000	
339	  N6	-6.981	10.047	14.474	N.pl3	11	A27	0.000	
340	  N7	-4.044	10.038	13.558	N.2	11	A27	0.000	
341	  C8	-3.153	10.216	12.643	C.2	11	A27	0.000	
342	  N9	-3.577	10.582	11.415	N.pl3	11	A27	0.000	
343	 OP1	2.885	11.997	12.777	O.co2	11	A27	0.000	
344	 OP2	1.211	12.184	14.706	O.co2	11	A27	0.000	
345	HO2'	-3.607	12.293	8.205	 H	11	A27	0.000	
346	  H2	-7.863	11.248	10.357	 H	11	A27	0.000	
347	  H8	-2.093	10.103	12.855	 H	11	A27	0.000	
348	 H1'	-3.243	10.349	9.347	 H	11	A27	0.000	
349	 H2'	-3.537	12.866	10.485	 H	11	A27	0.000	
350	 H3'	-1.445	12.858	11.626	 H	11	A27	0.000	
351	 H4'	-0.281	11.587	9.110	 H	11	A27	0.000	
352	 H5'	1.206	10.470	10.805	 H	11	A27	0.000	
353	 H61	-6.308	9.802	15.186	 H	11	A27	0.000	
354	 H62	-7.965	10.070	14.696	 H	11	A27	0.000	
355	H5''	1.400	12.231	10.729	 H	11	A27	0.000	
356	   P	-1.136	15.351	10.481	P.3	12	G28	0.000	
357	 C5'	-3.417	15.436	9.154	C.3	12	G28	0.000	
358	 O5'	-2.740	15.472	10.418	O.3	12	G28	0.000	
359	 C4'	-4.931	15.483	9.304	C.3	12	G28	0.000	
360	 O4'	-5.433	14.313	9.936	O.3	12	G28	0.000	
361	 C3'	-5.371	16.618	10.203	C.3	12	G28	0.000	
362	 O3'	-5.525	17.796	9.406	O.3	12	G28	0.000	
363	 C2'	-6.746	16.166	10.675	C.3	12	G28	0.000	
364	 O2'	-7.781	16.663	9.818	O.3	12	G28	0.000	
365	 C1'	-6.656	14.636	10.613	C.3	12	G28	0.000	
366	  N1	-9.487	13.650	14.752	N.pl3	12	G28	0.000	
367	  C2	-9.849	14.252	13.565	C.2	12	G28	0.000	
368	  N2	-11.121	14.640	13.463	N.pl3	12	G28	0.000	
369	  N3	-9.005	14.453	12.547	N.2	12	G28	0.000	
370	  C4	-7.762	13.996	12.816	C.2	12	G28	0.000	
371	  C5	-7.314	13.381	13.976	C.2	12	G28	0.000	
372	  C6	-8.217	13.172	15.052	C.2	12	G28	0.000	
373	  O6	-7.998	12.657	16.130	O.2	12	G28	0.000	
374	  N7	-5.959	13.053	13.866	N.2	12	G28	0.000	
375	  C8	-5.680	13.480	12.680	C.2	12	G28	0.000	
376	  N9	-6.678	14.057	11.969	N.pl3	12	G28	0.000	
377	 OP1	-0.557	16.347	9.552	O.co2	12	G28	0.000	
378	 OP2	-0.726	15.339	11.903	O.co2	12	G28	0.000	
379	HO2'	-7.412	16.730	8.935	 H	12	G28	0.000	
380	  H1	-10.165	13.539	15.452	 H	12	G28	0.000	
381	  H8	-4.677	13.379	12.266	 H	12	G28	0.000	
382	 H1'	-7.498	14.248	10.041	 H	12	G28	0.000	
383	 H2'	-6.909	16.489	11.706	 H	12	G28	0.000	
384	 H21	-11.757	14.490	14.232	 H	12	G28	0.000	
385	 H3'	-4.684	16.769	11.035	 H	12	G28	0.000	
386	 H22	-11.447	15.085	12.617	 H	12	G28	0.000	
387	 H4'	-5.394	15.587	8.325	 H	12	G28	0.000	
388	 H5'	-3.181	14.511	8.646	 H	12	G28	0.000	
389	H5''	-3.073	16.288	8.550	 H	12	G28	0.000	
390	   P	-5.392	19.253	10.075	P.3	13	C29	0.000	
391	 C5'	-8.018	19.335	10.334	C.3	13	C29	0.000	
392	 O5'	-6.734	19.351	10.962	O.3	13	C29	0.000	
393	 C4'	-9.148	19.392	11.358	C.3	13	C29	0.000	
394	 O4'	-9.287	18.167	12.066	O.3	13	C29	0.000	
395	 C3'	-8.872	20.423	12.431	C.3	13	C29	0.000	
396	 O3'	-9.361	21.690	11.979	O.3	13	C29	0.000	
397	 C2'	-9.737	19.951	13.592	C.3	13	C29	0.000	
398	 O2'	-11.023	20.582	13.573	O.3	13	C29	0.000	
399	 C1'	-9.856	18.438	13.356	C.3	13	C29	0.000	
400	  N1	-9.152	17.686	14.414	N.pl3	13	C29	0.000	
401	  C2	-9.907	17.210	15.479	C.2	13	C29	0.000	
402	  O2	-11.107	17.407	15.517	O.2	13	C29	0.000	
403	  N3	-9.268	16.524	16.465	N.2	13	C29	0.000	
404	  C4	-7.947	16.311	16.413	C.2	13	C29	0.000	
405	  N4	-7.354	15.638	17.398	N.pl3	13	C29	0.000	
406	  C5	-7.166	16.797	15.317	C.2	13	C29	0.000	
407	  C6	-7.805	17.475	14.345	C.2	13	C29	0.000	
408	 OP1	-5.473	20.266	8.998	O.co2	13	C29	0.000	
409	 OP2	-4.230	19.239	10.992	O.co2	13	C29	0.000	
410	HO2'	-11.288	20.715	14.486	 H	13	C29	0.000	
411	  H5	-6.091	16.624	15.269	 H	13	C29	0.000	
412	  H6	-7.242	17.860	13.494	 H	13	C29	0.000	
413	 H1'	-10.908	18.155	13.353	 H	13	C29	0.000	
414	 H2'	-9.226	20.141	14.538	 H	13	C29	0.000	
415	 H3'	-7.816	20.460	12.698	 H	13	C29	0.000	
416	 H4'	-10.087	19.625	10.857	 H	13	C29	0.000	
417	 H41	-7.900	15.293	18.174	 H	13	C29	0.000	
418	 H5'	-8.115	18.421	9.748	 H	13	C29	0.000	
419	 H42	-6.358	15.474	17.369	 H	13	C29	0.000	
420	H5''	-8.098	20.194	9.668	 H	13	C29	0.000	
421	   P	-8.596	23.049	12.380	P.3	14	C30	0.000	
422	 C5'	-9.872	23.359	14.672	C.3	14	C30	0.000	
423	 O5'	-8.660	23.028	13.989	O.3	14	C30	0.000	
424	 C4'	-9.786	23.032	16.160	C.3	14	C30	0.000	
425	 O4'	-9.257	21.717	16.368	O.3	14	C30	0.000	
426	 C3'	-8.842	23.992	16.874	C.3	14	C30	0.000	
427	 O3'	-9.309	24.165	18.215	O.3	14	C30	0.000	
428	 C2'	-7.527	23.235	16.921	C.3	14	C30	0.000	
429	 O2'	-6.738	23.624	18.050	O.3	14	C30	0.000	
430	 C1'	-7.989	21.789	17.036	C.3	14	C30	0.000	
431	  N1	-7.013	20.870	16.417	N.pl3	14	C30	0.000	
432	  C2	-6.525	19.827	17.194	C.2	14	C30	0.000	
433	  O2	-6.900	19.692	18.344	O.2	14	C30	0.000	
434	  N3	-5.626	18.972	16.635	N.2	14	C30	0.000	
435	  C4	-5.221	19.131	15.368	C.2	14	C30	0.000	
436	  N4	-4.340	18.274	14.851	N.pl3	14	C30	0.000	
437	  C5	-5.720	20.203	14.564	C.2	14	C30	0.000	
438	  C6	-6.610	21.045	15.125	C.2	14	C30	0.000	
439	 OP1	-9.402	24.193	11.899	O.co2	14	C30	0.000	
440	 OP2	-7.179	22.919	11.971	O.co2	14	C30	0.000	
441	HO2'	-7.070	23.141	18.811	 H	14	C30	0.000	
442	  H5	-5.393	20.335	13.533	 H	14	C30	0.000	
443	  H6	-7.012	21.873	14.542	 H	14	C30	0.000	
444	 H1'	-8.117	21.531	18.087	 H	14	C30	0.000	
445	 H2'	-6.976	23.379	15.989	 H	14	C30	0.000	
446	 H3'	-8.748	24.941	16.346	 H	14	C30	0.000	
447	 H4'	-10.777	23.096	16.605	 H	14	C30	0.000	
448	 H41	-3.983	17.515	15.414	 H	14	C30	0.000	
449	 H5'	-10.694	22.793	14.231	 H	14	C30	0.000	
450	 H42	-4.028	18.385	13.898	 H	14	C30	0.000	
451	H5''	-10.070	24.424	14.553	 H	14	C30	0.000	
452	   P	-9.698	25.628	18.764	P.3	15	U31	0.000	
453	 C5'	-10.154	26.314	21.273	C.3	15	U31	0.000	
454	 O5'	-9.443	25.488	20.347	O.3	15	U31	0.000	
455	 C4'	-9.386	26.481	22.580	C.3	15	U31	0.000	
456	 O4'	-8.395	25.461	22.727	O.3	15	U31	0.000	
457	 C3'	-8.646	27.822	22.612	C.3	15	U31	0.000	
458	 O3'	-8.959	28.472	23.847	O.3	15	U31	0.000	
459	 C2'	-7.167	27.450	22.635	C.3	15	U31	0.000	
460	 O2'	-6.415	28.343	23.465	O.3	15	U31	0.000	
461	 C1'	-7.188	26.044	23.207	C.3	15	U31	0.000	
462	  N1	-6.008	25.271	22.771	N.pl3	15	U31	0.000	
463	  C2	-4.775	25.666	23.254	C.2	15	U31	0.000	
464	  O2	-4.648	26.610	24.009	O.2	15	U31	0.000	
465	  N3	-3.690	24.922	22.827	N.pl3	15	U31	0.000	
466	  C4	-3.731	23.834	21.971	C.2	15	U31	0.000	
467	  O4	-2.711	23.252	21.661	O.2	15	U31	0.000	
468	  C5	-5.060	23.493	21.516	C.2	15	U31	0.000	
469	  C6	-6.138	24.208	21.921	C.2	15	U31	0.000	
470	 OP1	-11.147	25.835	18.543	O.co2	15	U31	0.000	
471	 OP2	-8.723	26.601	18.222	O.co2	15	U31	0.000	
472	HO2'	-5.510	28.335	23.144	 H	15	U31	0.000	
473	  H3	-2.808	25.191	23.161	 H	15	U31	0.000	
474	  H5	-5.197	22.651	20.839	 H	15	U31	0.000	
475	  H6	-7.129	23.928	21.562	 H	15	U31	0.000	
476	 H1'	-7.213	26.092	24.296	 H	15	U31	0.000	
477	 H2'	-6.769	27.435	21.617	 H	15	U31	0.000	
478	 H3'	-8.895	28.443	21.752	 H	15	U31	0.000	
479	 H4'	-10.080	26.430	23.419	 H	15	U31	0.000	
480	 H5'	-11.122	25.860	21.485	 H	15	U31	0.000	
481	H5''	-10.312	27.295	20.826	 H	15	U31	0.000	
482	   P	-10.146	29.556	23.923	P.3	16	G32	0.000	
483	 C5'	-12.625	29.102	24.729	C.3	16	G32	0.000	
484	 O5'	-11.460	28.632	24.035	O.3	16	G32	0.000	
485	 C4'	-13.803	28.137	24.637	C.3	16	G32	0.000	
486	 O4'	-14.803	28.636	23.751	O.3	16	G32	0.000	
487	 C3'	-13.384	26.793	24.064	C.3	16	G32	0.000	
488	 O3'	-14.320	25.806	24.502	O.3	16	G32	0.000	
489	 C2'	-13.554	26.984	22.566	C.3	16	G32	0.000	
490	 O2'	-13.889	25.751	21.917	O.3	16	G32	0.000	
491	 C1'	-14.698	27.993	22.472	C.3	16	G32	0.000	
492	  N1	-16.706	30.701	18.627	N.pl3	16	G32	0.000	
493	  C2	-17.315	29.799	19.477	C.2	16	G32	0.000	
494	  N2	-18.617	29.589	19.279	N.pl3	16	G32	0.000	
495	  N3	-16.674	29.151	20.454	N.2	16	G32	0.000	
496	  C4	-15.363	29.480	20.511	C.2	16	G32	0.000	
497	  C5	-14.673	30.369	19.701	C.2	16	G32	0.000	
498	  C6	-15.363	31.054	18.665	C.2	16	G32	0.000	
499	  O6	-14.922	31.859	17.869	O.2	16	G32	0.000	
500	  N7	-13.328	30.436	20.076	N.2	16	G32	0.000	
501	  C8	-13.289	29.604	21.063	C.2	16	G32	0.000	
502	  N9	-14.443	28.980	21.406	N.pl3	16	G32	0.000	
503	 OP1	-10.198	30.279	22.633	O.co2	16	G32	0.000	
504	 OP2	-10.004	30.312	25.187	O.co2	16	G32	0.000	
505	HO2'	-13.195	25.121	22.126	 H	16	G32	0.000	
506	  H1	-17.246	31.136	17.934	 H	16	G32	0.000	
507	  H8	-12.361	29.411	21.602	 H	16	G32	0.000	
508	 H1'	-15.626	27.466	22.258	 H	16	G32	0.000	
509	 H2'	-12.643	27.411	22.139	 H	16	G32	0.000	
510	 H21	-19.102	30.079	18.541	 H	16	G32	0.000	
511	 H3'	-12.359	26.537	24.330	 H	16	G32	0.000	
512	 H22	-19.119	28.940	19.868	 H	16	G32	0.000	
513	 H4'	-14.237	27.995	25.625	 H	16	G32	0.000	
514	 H5'	-12.952	30.033	24.287	 H	16	G32	0.000	
515	H5''	-12.359	29.268	25.782	 H	16	G32	0.000	
516	   P	-13.947	24.800	25.703	P.3	17	G33	0.000	
517	 C5'	-13.208	23.189	23.743	C.3	17	G33	0.000	
518	 O5'	-12.901	23.794	25.006	O.3	17	G33	0.000	
519	 C4'	-12.807	21.721	23.691	C.3	17	G33	0.000	
520	 O4'	-13.685	20.977	22.857	O.3	17	G33	0.000	
521	 C3'	-11.431	21.549	23.075	C.3	17	G33	0.000	
522	 O3'	-10.881	20.316	23.544	O.3	17	G33	0.000	
523	 C2'	-11.710	21.408	21.582	C.3	17	G33	0.000	
524	 O2'	-10.845	20.438	20.982	O.3	17	G33	0.000	
525	 C1'	-13.174	20.960	21.518	C.3	17	G33	0.000	
526	  N1	-16.965	21.309	18.105	N.pl3	17	G33	0.000	
527	  C2	-16.473	20.197	18.759	C.2	17	G33	0.000	
528	  N2	-17.060	19.036	18.469	N.pl3	17	G33	0.000	
529	  N3	-15.467	20.239	19.637	N.2	17	G33	0.000	
530	  C4	-14.989	21.492	19.809	C.2	17	G33	0.000	
531	  C5	-15.422	22.659	19.197	C.2	17	G33	0.000	
532	  C6	-16.492	22.606	18.264	C.2	17	G33	0.000	
533	  O6	-16.994	23.520	17.640	O.2	17	G33	0.000	
534	  N7	-14.673	23.754	19.640	N.2	17	G33	0.000	
535	  C8	-13.857	23.196	20.470	C.2	17	G33	0.000	
536	  N9	-13.959	21.856	20.647	N.pl3	17	G33	0.000	
537	 OP1	-15.160	24.033	26.060	O.co2	17	G33	0.000	
538	 OP2	-13.228	25.570	26.743	O.co2	17	G33	0.000	
539	HO2'	-10.363	20.007	21.692	 H	17	G33	0.000	
540	  H1	-17.707	21.197	17.474	 H	17	G33	0.000	
541	  H8	-13.113	23.782	21.010	 H	17	G33	0.000	
542	 H1'	-13.225	19.944	21.125	 H	17	G33	0.000	
543	 H2'	-11.599	22.378	21.092	 H	17	G33	0.000	
544	 H21	-17.821	19.006	17.806	 H	17	G33	0.000	
545	 H3'	-10.779	22.396	23.288	 H	17	G33	0.000	
546	 H22	-16.744	18.187	18.916	 H	17	G33	0.000	
547	 H4'	-12.818	21.301	24.695	 H	17	G33	0.000	
548	 H5'	-12.658	23.693	22.960	 H	17	G33	0.000	
549	H5''	-14.287	23.290	23.562	 H	17	G33	0.000	
550	   P	-10.286	20.201	25.036	P.3	18	G34	0.000	
551	 C5'	-10.653	18.290	26.823	C.3	18	G34	0.000	
552	 O5'	-10.658	18.691	25.446	O.3	18	G34	0.000	
553	 C4'	-11.450	17.016	27.059	C.3	18	G34	0.000	
554	 O4'	-12.824	17.310	27.347	O.3	18	G34	0.000	
555	 C3'	-11.452	16.134	25.817	C.3	18	G34	0.000	
556	 O3'	-10.464	15.116	25.989	O.3	18	G34	0.000	
557	 C2'	-12.824	15.484	25.853	C.3	18	G34	0.000	
558	 O2'	-12.829	14.312	26.675	O.3	18	G34	0.000	
559	 C1'	-13.680	16.590	26.449	C.3	18	G34	0.000	
560	  N1	-17.259	20.024	25.200	N.pl3	18	G34	0.000	
561	  C2	-17.066	19.352	26.391	C.2	18	G34	0.000	
562	  N2	-17.928	19.628	27.370	N.pl3	18	G34	0.000	
563	  N3	-16.081	18.470	26.593	N.2	18	G34	0.000	
564	  C4	-15.301	18.315	25.500	C.2	18	G34	0.000	
565	  C5	-15.422	18.946	24.271	C.2	18	G34	0.000	
566	  C6	-16.472	19.882	24.065	C.2	18	G34	0.000	
567	  O6	-16.726	20.521	23.063	O.2	18	G34	0.000	
568	  N7	-14.420	18.517	23.395	N.2	18	G34	0.000	
569	  C8	-13.772	17.677	24.128	C.2	18	G34	0.000	
570	  N9	-14.210	17.479	25.396	N.pl3	18	G34	0.000	
571	 OP1	-11.049	21.121	25.910	O.co2	18	G34	0.000	
572	 OP2	-8.812	20.311	24.957	O.co2	18	G34	0.000	
573	HO2'	-11.933	14.186	26.999	 H	18	G34	0.000	
574	  H1	-18.005	20.656	25.131	 H	18	G34	0.000	
575	  H8	-12.902	17.144	23.744	 H	18	G34	0.000	
576	 H1'	-14.508	16.150	27.006	 H	18	G34	0.000	
577	 H2'	-13.159	15.255	24.838	 H	18	G34	0.000	
578	 H21	-18.670	20.294	27.217	 H	18	G34	0.000	
579	 H3'	-11.298	16.712	24.906	 H	18	G34	0.000	
580	 H22	-17.838	19.169	28.266	 H	18	G34	0.000	
581	 H4'	-11.018	16.466	27.892	 H	18	G34	0.000	
582	 H5'	-11.112	19.063	27.424	 H	18	G34	0.000	
583	H5''	-9.610	18.146	27.140	 H	18	G34	0.000	
584	   P	-8.898	15.495	26.012	P.3	19	A35	0.000	
585	 C5'	-9.074	13.951	23.881	C.3	19	A35	0.000	
586	 O5'	-8.274	14.460	24.950	O.3	19	A35	0.000	
587	 C4'	-9.443	12.487	24.105	C.3	19	A35	0.000	
588	 O4'	-8.332	11.745	24.602	O.3	19	A35	0.000	
589	 C3'	-10.532	12.351	25.157	C.3	19	A35	0.000	
590	 O3'	-11.222	11.119	24.933	O.3	19	A35	0.000	
591	 C2'	-9.753	12.233	26.457	C.3	19	A35	0.000	
592	 O2'	-10.451	11.426	27.413	O.3	19	A35	0.000	
593	 C1'	-8.445	11.571	26.023	C.3	19	A35	0.000	
594	  N1	-3.933	13.944	25.487	N.2	19	A35	0.000	
595	  C2	-4.801	13.489	24.581	C.2	19	A35	0.000	
596	  N3	-5.960	12.880	24.813	N.2	19	A35	0.000	
597	  C4	-6.193	12.757	26.135	C.2	19	A35	0.000	
598	  C5	-5.383	13.181	27.164	C.2	19	A35	0.000	
599	  C6	-4.188	13.809	26.801	C.2	19	A35	0.000	
600	  N6	-3.307	14.267	27.690	N.pl3	19	A35	0.000	
601	  N7	-5.956	12.878	28.403	N.2	19	A35	0.000	
602	  C8	-7.055	12.302	28.048	C.2	19	A35	0.000	
603	  N9	-7.295	12.177	26.720	N.pl3	19	A35	0.000	
604	 OP1	-8.361	15.167	27.351	O.co2	19	A35	0.000	
605	 OP2	-8.744	16.865	25.471	O.co2	19	A35	0.000	
606	HO2'	-10.119	11.663	28.283	 H	19	A35	0.000	
607	  H2	-4.530	13.633	23.535	 H	19	A35	0.000	
608	  H8	-7.764	11.931	28.788	 H	19	A35	0.000	
609	 H1'	-8.485	10.506	26.255	 H	19	A35	0.000	
610	 H2'	-9.553	13.228	26.863	 H	19	A35	0.000	
611	 H3'	-11.206	13.207	25.160	 H	19	A35	0.000	
612	 H4'	-9.782	12.047	23.169	 H	19	A35	0.000	
613	 H5'	-8.521	14.039	22.947	 H	19	A35	0.000	
614	 H61	-2.457	14.714	27.375	 H	19	A35	0.000	
615	 H62	-3.488	14.168	28.678	 H	19	A35	0.000	
616	H5''	-9.987	14.541	23.811	 H	19	A35	0.000	
617	   P	-12.747	10.934	25.414	P.3	20	G36	0.000	
618	 C5'	-14.726	12.639	25.023	C.3	20	G36	0.000	
619	 O5'	-13.533	12.021	24.523	O.3	20	G36	0.000	
620	 C4'	-15.365	13.575	24.008	C.3	20	G36	0.000	
621	 O4'	-14.620	14.786	23.850	O.3	20	G36	0.000	
622	 C3'	-15.396	12.948	22.627	C.3	20	G36	0.000	
623	 O3'	-16.592	12.174	22.501	O.3	20	G36	0.000	
624	 C2'	-15.491	14.166	21.728	C.3	20	G36	0.000	
625	 O2'	-16.837	14.650	21.639	O.3	20	G36	0.000	
626	 C1'	-14.585	15.157	22.458	C.3	20	G36	0.000	
627	  N1	-11.488	16.154	18.509	N.pl3	20	G36	0.000	
628	  C2	-12.841	16.393	18.643	C.2	20	G36	0.000	
629	  N2	-13.442	16.968	17.601	N.pl3	20	G36	0.000	
630	  N3	-13.544	16.089	19.739	N.2	20	G36	0.000	
631	  C4	-12.776	15.520	20.697	C.2	20	G36	0.000	
632	  C5	-11.417	15.245	20.646	C.2	20	G36	0.000	
633	  C6	-10.679	15.573	19.477	C.2	20	G36	0.000	
634	  O6	-9.495	15.402	19.261	O.2	20	G36	0.000	
635	  N7	-10.989	14.654	21.838	N.2	20	G36	0.000	
636	  C8	-12.085	14.609	22.517	C.2	20	G36	0.000	
637	  N9	-13.209	15.095	21.935	N.pl3	20	G36	0.000	
638	 OP1	-12.841	11.346	26.833	O.co2	20	G36	0.000	
639	 OP2	-13.201	9.586	25.006	O.co2	20	G36	0.000	
640	HO2'	-16.954	15.299	22.336	 H	20	G36	0.000	
641	  H1	-11.044	16.406	17.673	 H	20	G36	0.000	
642	  H8	-12.105	14.199	23.528	 H	20	G36	0.000	
643	 H1'	-14.977	16.167	22.338	 H	20	G36	0.000	
644	 H2'	-15.085	13.943	20.734	 H	20	G36	0.000	
645	 H21	-12.910	17.198	16.774	 H	20	G36	0.000	
646	 H3'	-14.498	12.362	22.426	 H	20	G36	0.000	
647	 H22	-14.431	17.174	17.639	 H	20	G36	0.000	
648	 H4'	-16.379	13.817	24.324	 H	20	G36	0.000	
649	 H5'	-14.484	13.237	25.891	 H	20	G36	0.000	
650	H5''	-15.437	11.849	25.305	 H	20	G36	0.000	
651	   P	-16.642	10.919	21.492	P.3	21	C37	0.000	
652	 C5'	-17.403	12.543	19.567	C.3	21	C37	0.000	
653	 O5'	-16.424	11.632	20.068	O.3	21	C37	0.000	
654	 C4'	-16.963	13.172	18.251	C.3	21	C37	0.000	
655	 O4'	-15.823	14.007	18.433	O.3	21	C37	0.000	
656	 C3'	-16.514	12.128	17.249	C.3	21	C37	0.000	
657	 O3'	-17.658	11.668	16.522	O.3	21	C37	0.000	
658	 C2'	-15.639	12.939	16.311	C.3	21	C37	0.000	
659	 O2'	-16.413	13.576	15.288	O.3	21	C37	0.000	
660	 C1'	-15.003	13.965	17.254	C.3	21	C37	0.000	
661	  N1	-13.615	13.581	17.576	N.pl3	21	C37	0.000	
662	  C2	-12.639	13.850	16.625	C.2	21	C37	0.000	
663	  O2	-12.935	14.396	15.580	O.2	21	C37	0.000	
664	  N3	-11.356	13.488	16.899	N.2	21	C37	0.000	
665	  C4	-11.040	12.889	18.054	C.2	21	C37	0.000	
666	  N4	-9.773	12.547	18.286	N.pl3	21	C37	0.000	
667	  C5	-12.041	12.611	19.036	C.2	21	C37	0.000	
668	  C6	-13.309	12.972	18.758	C.2	21	C37	0.000	
669	 OP1	-18.007	10.349	21.524	O.co2	21	C37	0.000	
670	 OP2	-15.471	10.056	21.764	O.co2	21	C37	0.000	
671	HO2'	-16.682	14.434	15.626	 H	21	C37	0.000	
672	  H5	-11.787	12.124	19.977	 H	21	C37	0.000	
673	  H6	-14.099	12.770	19.480	 H	21	C37	0.000	
674	 H1'	-15.007	14.945	16.782	 H	21	C37	0.000	
675	 H2'	-14.865	12.303	15.877	 H	21	C37	0.000	
676	 H3'	-15.965	11.314	17.722	 H	21	C37	0.000	
677	 H4'	-17.777	13.760	17.833	 H	21	C37	0.000	
678	 H41	-9.063	12.741	17.595	 H	21	C37	0.000	
679	 H5'	-17.563	13.332	20.303	 H	21	C37	0.000	
680	 H42	-9.523	12.096	19.154	 H	21	C37	0.000	
681	H5''	-18.339	12.007	19.410	 H	21	C37	0.000	
682	   P	-17.676	10.189	15.885	P.3	22	U38	0.000	
683	 C5'	-16.924	11.089	13.519	C.3	22	U38	0.000	
684	 O5'	-16.614	10.311	14.679	O.3	22	U38	0.000	
685	 C4'	-15.771	11.102	12.519	C.3	22	U38	0.000	
686	 O4'	-14.629	11.768	13.038	O.3	22	U38	0.000	
687	 C3'	-15.274	9.704	12.215	C.3	22	U38	0.000	
688	 O3'	-16.076	9.152	11.167	O.3	22	U38	0.000	
689	 C2'	-13.877	9.965	11.671	C.3	22	U38	0.000	
690	 O2'	-13.897	10.161	10.252	O.3	22	U38	0.000	
691	 C1'	-13.451	11.243	12.406	C.3	22	U38	0.000	
692	  N1	-12.407	10.940	13.400	N.pl3	22	U38	0.000	
693	  C2	-11.112	10.795	12.942	C.2	22	U38	0.000	
694	  O2	-10.823	10.925	11.769	O.2	22	U38	0.000	
695	  N3	-10.161	10.490	13.898	N.pl3	22	U38	0.000	
696	  C4	-10.390	10.321	15.252	C.2	22	U38	0.000	
697	  O4	-9.476	10.046	16.005	O.2	22	U38	0.000	
698	  C5	-11.772	10.491	15.641	C.2	22	U38	0.000	
699	  C6	-12.720	10.789	14.721	C.2	22	U38	0.000	
700	 OP1	-19.016	9.955	15.300	O.co2	22	U38	0.000	
701	 OP2	-17.133	9.245	16.887	O.co2	22	U38	0.000	
702	HO2'	-14.004	9.298	9.847	 H	22	U38	0.000	
703	  H3	-9.237	10.390	13.587	 H	22	U38	0.000	
704	  H5	-12.055	10.379	16.687	 H	22	U38	0.000	
705	  H6	-13.758	10.895	15.037	 H	22	U38	0.000	
706	 H1'	-13.071	11.967	11.687	 H	22	U38	0.000	
707	 H2'	-13.212	9.140	11.941	 H	22	U38	0.000	
708	 H3'	-15.256	9.075	13.107	 H	22	U38	0.000	
709	 H4'	-16.084	11.590	11.599	 H	22	U38	0.000	
710	 H5'	-17.139	12.112	13.827	 H	22	U38	0.000	
711	H5''	-17.807	10.671	13.037	 H	22	U38	0.000	
712	   P	-15.798	7.661	10.625	P.3	23	C39	0.000	
713	 C5'	-14.018	5.868	11.398	C.3	23	C39	0.000	
714	 O5'	-14.509	7.209	11.478	O.3	23	C39	0.000	
715	 C4'	-12.740	5.787	10.567	C.3	23	C39	0.000	
716	 O4'	-11.854	6.867	10.879	O.3	23	C39	0.000	
717	 C3'	-11.975	4.506	10.868	C.3	23	C39	0.000	
718	 O3'	-12.296	3.546	9.857	O.3	23	C39	0.000	
719	 C2'	-10.519	4.908	10.697	C.3	23	C39	0.000	
720	 O2'	-10.086	4.741	9.342	O.3	23	C39	0.000	
721	 C1'	-10.524	6.377	11.104	C.3	23	C39	0.000	
722	  N1	-10.132	6.537	12.518	N.pl3	23	C39	0.000	
723	  C2	-8.813	6.263	12.856	C.2	23	C39	0.000	
724	  O2	-8.025	5.897	12.004	O.2	23	C39	0.000	
725	  N3	-8.435	6.415	14.155	N.2	23	C39	0.000	
726	  C4	-9.312	6.816	15.086	C.2	23	C39	0.000	
727	  N4	-8.906	6.952	16.348	N.pl3	23	C39	0.000	
728	  C5	-10.671	7.097	14.742	C.2	23	C39	0.000	
729	  C6	-11.036	6.946	13.455	C.2	23	C39	0.000	
730	 OP1	-15.400	7.753	9.202	O.co2	23	C39	0.000	
731	 OP2	-16.938	6.804	11.018	O.co2	23	C39	0.000	
732	HO2'	-10.184	5.591	8.905	 H	23	C39	0.000	
733	  H5	-11.388	7.424	15.497	 H	23	C39	0.000	
734	  H6	-12.066	7.151	13.158	 H	23	C39	0.000	
735	 H1'	-9.826	6.928	10.473	 H	23	C39	0.000	
736	 H2'	-9.888	4.331	11.381	 H	23	C39	0.000	
737	 H3'	-12.180	4.133	11.872	 H	23	C39	0.000	
738	 H4'	-12.990	5.822	9.508	 H	23	C39	0.000	
739	 H41	-7.947	6.755	16.595	 H	23	C39	0.000	
740	 H5'	-14.780	5.237	10.939	 H	23	C39	0.000	
741	 H42	-9.560	7.249	17.059	 H	23	C39	0.000	
742	H5''	-13.812	5.503	12.404	 H	23	C39	0.000	
743	   P	-11.952	1.987	10.071	P.3	24	U40	0.000	
744	 C5'	-11.989	2.077	7.430	C.3	24	U40	0.000	
745	 O5'	-11.405	1.545	8.622	O.3	24	U40	0.000	
746	 C4'	-10.963	2.198	6.304	C.3	24	U40	0.000	
747	 O4'	-9.934	3.139	6.637	O.3	24	U40	0.000	
748	 C3'	-10.257	0.871	6.062	C.3	24	U40	0.000	
749	 O3'	-10.905	0.202	4.976	O.3	24	U40	0.000	
750	 C2'	-8.874	1.294	5.604	C.3	24	U40	0.000	
751	 O2'	-8.843	1.568	4.199	O.3	24	U40	0.000	
752	 C1'	-8.639	2.552	6.425	C.3	24	U40	0.000	
753	  N1	-7.991	2.225	7.708	N.pl3	24	U40	0.000	
754	  C2	-6.609	2.251	7.751	C.2	24	U40	0.000	
755	  O2	-5.937	2.540	6.782	O.2	24	U40	0.000	
756	  N3	-6.034	1.927	8.967	N.pl3	24	U40	0.000	
757	  C4	-6.712	1.586	10.125	C.2	24	U40	0.000	
758	  O4	-6.107	1.323	11.142	O.2	24	U40	0.000	
759	  C5	-8.150	1.586	9.986	C.2	24	U40	0.000	
760	  C6	-8.735	1.900	8.806	C.2	24	U40	0.000	
761	 OP1	-13.217	1.265	10.330	O.co2	24	U40	0.000	
762	 OP2	-10.835	1.889	11.037	O.co2	24	U40	0.000	
763	HO2'	-9.342	0.874	3.761	 H	24	U40	0.000	
764	  H3	-5.054	1.933	9.013	 H	24	U40	0.000	
765	  H5	-8.772	1.327	10.842	 H	24	U40	0.000	
766	  H6	-9.823	1.892	8.731	 H	24	U40	0.000	
767	 H1'	-8.011	3.244	5.864	 H	24	U40	0.000	
768	 H2'	-8.139	0.530	5.871	 H	24	U40	0.000	
769	 H3'	-10.220	0.257	6.961	 H	24	U40	0.000	
770	 H4'	-11.462	2.518	5.391	 H	24	U40	0.000	
771	 H5'	-12.398	3.065	7.645	 H	24	U40	0.000	
772	H5''	-12.796	1.420	7.106	 H	24	U40	0.000	
773	   P	-10.706	-1.381	4.760	P.3	25	C41	0.000	
774	 C5'	-8.816	-1.520	2.923	C.3	25	C41	0.000	
775	 O5'	-9.164	-1.481	4.309	O.3	25	C41	0.000	
776	 C4'	-7.308	-1.405	2.717	C.3	25	C41	0.000	
777	 O4'	-6.705	-0.577	3.719	O.3	25	C41	0.000	
778	 C3'	-6.634	-2.762	2.842	C.3	25	C41	0.000	
779	 O3'	-6.523	-3.332	1.534	O.3	25	C41	0.000	
780	 C2'	-5.245	-2.405	3.337	C.3	25	C41	0.000	
781	 O2'	-4.379	-2.043	2.255	O.3	25	C41	0.000	
782	 C1'	-5.529	-1.215	4.247	C.3	25	C41	0.000	
783	  N1	-5.747	-1.652	5.641	N.pl3	25	C41	0.000	
784	  C2	-4.631	-2.011	6.386	C.2	25	C41	0.000	
785	  O2	-3.523	-1.973	5.888	O.2	25	C41	0.000	
786	  N3	-4.818	-2.403	7.676	N.2	25	C41	0.000	
787	  C4	-6.045	-2.443	8.215	C.2	25	C41	0.000	
788	  N4	-6.190	-2.824	9.483	N.pl3	25	C41	0.000	
789	  C5	-7.196	-2.075	7.450	C.2	25	C41	0.000	
790	  C6	-7.003	-1.688	6.175	C.2	25	C41	0.000	
791	 OP1	-11.550	-1.803	3.620	O.co2	25	C41	0.000	
792	 OP2	-10.849	-2.049	6.072	O.co2	25	C41	0.000	
793	HO2'	-4.921	-1.975	1.465	 H	25	C41	0.000	
794	  H5	-8.195	-2.105	7.884	 H	25	C41	0.000	
795	  H6	-7.858	-1.406	5.562	 H	25	C41	0.000	
796	 H1'	-4.690	-0.520	4.211	 H	25	C41	0.000	
797	 H2'	-4.823	-3.231	3.917	 H	25	C41	0.000	
798	 H3'	-7.160	-3.419	3.536	 H	25	C41	0.000	
799	 H4'	-7.105	-0.986	1.733	 H	25	C41	0.000	
800	 H41	-5.380	-3.085	10.028	 H	25	C41	0.000	
801	 H5'	-9.308	-0.694	2.409	 H	25	C41	0.000	
802	 H42	-7.109	-2.848	9.902	 H	25	C41	0.000	
803	H5''	-9.162	-2.462	2.495	 H	25	C41	0.000	
804	   P	-6.531	-4.931	1.339	P.3	26	U42	0.000	
805	 C5'	-3.952	-5.105	1.852	C.3	26	U42	0.000	
806	 O5'	-5.292	-5.393	2.254	O.3	26	U42	0.000	
807	 C4'	-2.940	-5.556	2.901	C.3	26	U42	0.000	
808	 O4'	-3.066	-4.803	4.104	O.3	26	U42	0.000	
809	 C3'	-3.171	-6.995	3.321	C.3	26	U42	0.000	
810	 O3'	-2.459	-7.852	2.425	O.3	26	U42	0.000	
811	 C2'	-2.507	-7.050	4.685	C.3	26	U42	0.000	
812	 O2'	-1.112	-7.354	4.578	O.3	26	U42	0.000	
813	 C1'	-2.733	-5.636	5.228	C.3	26	U42	0.000	
814	  N1	-3.814	-5.632	6.233	N.pl3	26	U42	0.000	
815	  C2	-3.501	-6.077	7.503	C.2	26	U42	0.000	
816	  O2	-2.383	-6.450	7.800	O.2	26	U42	0.000	
817	  N3	-4.535	-6.072	8.420	N.pl3	26	U42	0.000	
818	  C4	-5.836	-5.664	8.182	C.2	26	U42	0.000	
819	  O4	-6.667	-5.696	9.068	O.2	26	U42	0.000	
820	  C5	-6.073	-5.217	6.828	C.2	26	U42	0.000	
821	  C6	-5.076	-5.214	5.911	C.2	26	U42	0.000	
822	 OP1	-6.202	-5.228	-0.073	O.co2	26	U42	0.000	
823	 OP2	-7.774	-5.465	1.937	O.co2	26	U42	0.000	
824	HO2'	-0.939	-7.579	3.662	 H	26	U42	0.000	
825	  H3	-4.329	-6.394	9.320	 H	26	U42	0.000	
826	  H5	-7.069	-4.877	6.541	 H	26	U42	0.000	
827	  H6	-5.286	-4.878	4.897	 H	26	U42	0.000	
828	 H1'	-1.815	-5.272	5.686	 H	26	U42	0.000	
829	 H2'	-3.018	-7.776	5.320	 H	26	U42	0.000	
830	 H3'	-4.232	-7.239	3.374	 H	26	U42	0.000	
831	 H4'	-1.931	-5.445	2.510	 H	26	U42	0.000	
832	 H5'	-3.849	-4.031	1.699	 H	26	U42	0.000	
833	H5''	-3.744	-5.619	0.914	 H	26	U42	0.000	
834	   P	-2.934	-9.374	2.196	P.3	27	G43	0.000	
835	 C5'	-0.855	-10.506	3.366	C.3	27	G43	0.000	
836	 O5'	-2.244	-10.151	3.429	O.3	27	G43	0.000	
837	 C4'	-0.389	-11.298	4.581	C.3	27	G43	0.000	
838	 O4'	-0.418	-10.508	5.774	O.3	27	G43	0.000	
839	 C3'	-1.305	-12.470	4.876	C.3	27	G43	0.000	
840	 O3'	-0.885	-13.598	4.105	O.3	27	G43	0.000	
841	 C2'	-1.003	-12.743	6.335	C.3	27	G43	0.000	
842	 O2'	0.184	-13.531	6.488	O.3	27	G43	0.000	
843	 C1'	-0.816	-11.333	6.887	C.3	27	G43	0.000	
844	  N1	-3.858	-11.443	10.990	N.pl3	27	G43	0.000	
845	  C2	-2.641	-12.064	10.782	C.2	27	G43	0.000	
846	  N2	-2.180	-12.811	11.785	N.pl3	27	G43	0.000	
847	  N3	-1.933	-11.948	9.654	N.2	27	G43	0.000	
848	  C4	-2.547	-11.157	8.745	C.2	27	G43	0.000	
849	  C5	-3.760	-10.498	8.870	C.2	27	G43	0.000	
850	  C6	-4.505	-10.626	10.072	C.2	27	G43	0.000	
851	  O6	-5.573	-10.119	10.352	O.2	27	G43	0.000	
852	  N7	-4.051	-9.778	7.707	N.2	27	G43	0.000	
853	  C8	-3.024	-10.040	6.971	C.2	27	G43	0.000	
854	  N9	-2.070	-10.849	7.491	N.pl3	27	G43	0.000	
855	 OP1	-2.325	-9.866	0.940	O.co2	27	G43	0.000	
856	 OP2	-4.402	-9.434	2.376	O.co2	27	G43	0.000	
857	HO2'	0.934	-12.936	6.408	 H	27	G43	0.000	
858	  H1	-4.318	-11.580	11.844	 H	27	G43	0.000	
859	  H8	-2.930	-9.634	5.966	 H	27	G43	0.000	
860	 H1'	-0.028	-11.333	7.640	 H	27	G43	0.000	
861	 H2'	-1.859	-13.225	6.814	 H	27	G43	0.000	
862	 H21	-2.716	-12.897	12.638	 H	27	G43	0.000	
863	 H3'	-2.355	-12.222	4.715	 H	27	G43	0.000	
864	 H22	-1.296	-13.290	11.694	 H	27	G43	0.000	
865	 H4'	0.624	-11.659	4.415	 H	27	G43	0.000	
866	 H5'	-0.258	-9.605	3.333	 H	27	G43	0.000	
867	H5''	-0.689	-11.092	2.451	 H	27	G43	0.000	
868	   P	-1.938	-14.758	3.726	P.3	28	C44	0.000	
869	 C5'	-1.326	-16.014	5.964	C.3	28	C44	0.000	
870	 O5'	-2.322	-15.363	5.170	O.3	28	C44	0.000	
871	 C4'	-1.872	-16.449	7.323	C.3	28	C44	0.000	
872	 O4'	-2.210	-15.330	8.142	O.3	28	C44	0.000	
873	 C3'	-3.165	-17.230	7.191	C.3	28	C44	0.000	
874	 O3'	-2.851	-18.610	6.989	O.3	28	C44	0.000	
875	 C2'	-3.779	-17.073	8.570	C.3	28	C44	0.000	
876	 O2'	-3.284	-18.064	9.479	O.3	28	C44	0.000	
877	 C1'	-3.332	-15.666	8.977	C.3	28	C44	0.000	
878	  N1	-4.436	-14.700	8.802	N.pl3	28	C44	0.000	
879	  C2	-5.420	-14.661	9.782	C.2	28	C44	0.000	
880	  O2	-5.352	-15.395	10.749	O.2	28	C44	0.000	
881	  N3	-6.450	-13.783	9.626	N.2	28	C44	0.000	
882	  C4	-6.513	-12.978	8.558	C.2	28	C44	0.000	
883	  N4	-7.536	-12.133	8.435	N.pl3	28	C44	0.000	
884	  C5	-5.501	-13.015	7.548	C.2	28	C44	0.000	
885	  C6	-4.487	-13.885	7.709	C.2	28	C44	0.000	
886	 OP1	-1.223	-15.802	2.961	O.co2	28	C44	0.000	
887	 OP2	-3.146	-14.119	3.156	O.co2	28	C44	0.000	
888	HO2'	-2.744	-18.673	8.970	 H	28	C44	0.000	
889	  H5	-5.550	-12.360	6.678	 H	28	C44	0.000	
890	  H6	-3.701	-13.942	6.956	 H	28	C44	0.000	
891	 H1'	-3.019	-15.673	10.020	 H	28	C44	0.000	
892	 H2'	-4.868	-17.114	8.503	 H	28	C44	0.000	
893	 H3'	-3.812	-16.830	6.408	 H	28	C44	0.000	
894	 H4'	-1.130	-17.056	7.838	 H	28	C44	0.000	
895	 H41	-8.253	-12.103	9.146	 H	28	C44	0.000	
896	 H5'	-0.493	-15.329	6.120	 H	28	C44	0.000	
897	 H42	-7.594	-11.523	7.633	 H	28	C44	0.000	
898	H5''	-0.967	-16.893	5.430	 H	28	C44	0.000	
899	   P	-3.848	-19.555	6.149	P.3	29	C45	0.000	
900	 C5'	-5.198	-20.156	8.340	C.3	29	C45	0.000	
901	 O5'	-5.182	-19.538	7.051	O.3	29	C45	0.000	
902	 C4'	-6.538	-19.950	9.042	C.3	29	C45	0.000	
903	 O4'	-6.740	-18.587	9.379	O.3	29	C45	0.000	
904	 C3'	-7.700	-20.299	8.135	C.3	29	C45	0.000	
905	 O3'	-7.958	-21.707	8.126	O.3	29	C45	0.000	
906	 C2'	-8.843	-19.522	8.774	C.3	29	C45	0.000	
907	 O2'	-9.515	-20.308	9.766	O.3	29	C45	0.000	
908	 C1'	-8.144	-18.311	9.402	C.3	29	C45	0.000	
909	  N1	-8.451	-17.079	8.649	N.pl3	29	C45	0.000	
910	  C2	-9.677	-16.470	8.882	C.2	29	C45	0.000	
911	  O2	-10.456	-16.945	9.687	O.2	29	C45	0.000	
912	  N3	-9.975	-15.338	8.188	N.2	29	C45	0.000	
913	  C4	-9.110	-14.824	7.303	C.2	29	C45	0.000	
914	  N4	-9.437	-13.715	6.639	N.pl3	29	C45	0.000	
915	  C5	-7.847	-15.449	7.059	C.2	29	C45	0.000	
916	  C6	-7.560	-16.569	7.749	C.2	29	C45	0.000	
917	 OP1	-3.301	-20.931	6.158	O.co2	29	C45	0.000	
918	 OP2	-4.148	-18.888	4.862	O.co2	29	C45	0.000	
919	HO2'	-9.740	-19.721	10.491	 H	29	C45	0.000	
920	HO3'	-8.222	-21.943	7.234	 H	29	C45	0.000	
921	  H5	-7.142	-15.033	6.339	 H	29	C45	0.000	
922	  H6	-6.610	-17.078	7.580	 H	29	C45	0.000	
923	 H1'	-8.472	-18.199	10.434	 H	29	C45	0.000	
924	 H2'	-9.543	-19.190	8.004	 H	29	C45	0.000	
925	 H3'	-7.512	-19.927	7.125	 H	29	C45	0.000	
926	 H4'	-6.582	-20.553	9.946	 H	29	C45	0.000	
927	 H41	-10.327	-13.270	6.808	 H	29	C45	0.000	
928	 H5'	-4.406	-19.726	8.951	 H	29	C45	0.000	
929	 H42	-8.797	-13.324	5.964	 H	29	C45	0.000	
930	H5''	-5.018	-21.225	8.224	 H	29	C45	0.000	
@<TRIPOS>BOND
1 1 2 1
2 1 3 1
3 1 31 1
4 1 32 1
5 2 22 1
6 3 4 1
7 3 5 1
8 3 30 1
9 4 9 1
10 5 6 1
11 5 7 1
12 5 28 1
13 6 33 1
14 7 8 1
15 7 9 1
16 7 26 1
17 8 21 1
18 9 20 1
19 9 25 1
20 10 11 1
21 10 16 1
22 10 23 1
23 11 12 1
24 11 13 2
25 12 27 1
26 12 29 1
27 13 14 1
28 14 15 2
29 14 20 1
30 15 16 1
31 15 18 1
32 16 17 2
33 18 19 2
34 19 20 1
35 19 24 1
36 33 35 1
37 33 54 2
38 33 55 1
39 34 35 1
40 34 36 1
41 34 65 1
42 34 66 1
43 36 37 1
44 36 38 1
45 36 64 1
46 37 42 1
47 38 39 1
48 38 40 1
49 38 62 1
50 39 67 1
51 40 41 1
52 40 42 1
53 40 60 1
54 41 56 1
55 42 53 1
56 42 59 1
57 43 44 1
58 43 49 1
59 43 57 1
60 44 45 1
61 44 46 2
62 45 61 1
63 45 63 1
64 46 47 1
65 47 48 2
66 47 53 1
67 48 49 1
68 48 51 1
69 49 50 2
70 51 52 2
71 52 53 1
72 52 58 1
73 67 69 1
74 67 85 2
75 67 86 1
76 68 69 1
77 68 70 1
78 68 95 1
79 68 97 1
80 70 71 1
81 70 72 1
82 70 93 1
83 71 76 1
84 72 73 1
85 72 74 1
86 72 92 1
87 73 98 1
88 74 75 1
89 74 76 1
90 74 91 1
91 75 87 1
92 76 77 1
93 76 90 1
94 77 78 1
95 77 84 1
96 78 79 2
97 78 80 1
98 80 81 2
99 81 82 1
100 81 83 1
101 82 94 1
102 82 96 1
103 83 84 2
104 83 88 1
105 84 89 1
106 98 100 1
107 98 118 2
108 98 119 1
109 99 100 1
110 99 101 1
111 99 127 1
112 99 130 1
113 101 102 1
114 101 103 1
115 101 126 1
116 102 107 1
117 103 104 1
118 103 105 1
119 103 125 1
120 104 131 1
121 105 106 1
122 105 107 1
123 105 124 1
124 106 120 1
125 107 117 1
126 107 123 1
127 108 109 1
128 108 113 2
129 109 110 2
130 109 121 1
131 110 111 1
132 111 112 2
133 111 117 1
134 112 113 1
135 112 115 1
136 113 114 1
137 114 128 1
138 114 129 1
139 115 116 2
140 116 117 1
141 116 122 1
142 131 133 1
143 131 152 2
144 131 153 1
145 132 133 1
146 132 134 1
147 132 163 1
148 132 164 1
149 134 135 1
150 134 136 1
151 134 162 1
152 135 140 1
153 136 137 1
154 136 138 1
155 136 160 1
156 137 165 1
157 138 139 1
158 138 140 1
159 138 158 1
160 139 154 1
161 140 151 1
162 140 157 1
163 141 142 1
164 141 147 1
165 141 155 1
166 142 143 1
167 142 144 2
168 143 159 1
169 143 161 1
170 144 145 1
171 145 146 2
172 145 151 1
173 146 147 1
174 146 149 1
175 147 148 2
176 149 150 2
177 150 151 1
178 150 156 1
179 165 167 1
180 165 185 2
181 165 186 1
182 166 167 1
183 166 168 1
184 166 194 1
185 166 197 1
186 168 169 1
187 168 170 1
188 168 193 1
189 169 174 1
190 170 171 1
191 170 172 1
192 170 192 1
193 171 198 1
194 172 173 1
195 172 174 1
196 172 191 1
197 173 187 1
198 174 184 1
199 174 190 1
200 175 176 1
201 175 180 2
202 176 177 2
203 176 188 1
204 177 178 1
205 178 179 2
206 178 184 1
207 179 180 1
208 179 182 1
209 180 181 1
210 181 195 1
211 181 196 1
212 182 183 2
213 183 184 1
214 183 189 1
215 198 200 1
216 198 216 2
217 198 217 1
218 199 200 1
219 199 201 1
220 199 226 1
221 199 227 1
222 201 202 1
223 201 203 1
224 201 225 1
225 202 207 1
226 203 204 1
227 203 205 1
228 203 224 1
229 204 228 1
230 205 206 1
231 205 207 1
232 205 223 1
233 206 218 1
234 207 208 1
235 207 222 1
236 208 209 1
237 208 215 1
238 209 210 2
239 209 211 1
240 211 212 1
241 211 219 1
242 212 213 2
243 212 214 1
244 214 215 2
245 214 220 1
246 215 221 1
247 228 230 1
248 228 246 2
249 228 247 1
250 229 230 1
251 229 231 1
252 229 256 1
253 229 258 1
254 231 232 1
255 231 233 1
256 231 254 1
257 232 237 1
258 233 234 1
259 233 235 1
260 233 253 1
261 234 259 1
262 235 236 1
263 235 237 1
264 235 252 1
265 236 248 1
266 237 238 1
267 237 251 1
268 238 239 1
269 238 245 1
270 239 240 2
271 239 241 1
272 241 242 2
273 242 243 1
274 242 244 1
275 243 255 1
276 243 257 1
277 244 245 2
278 244 249 1
279 245 250 1
280 259 261 1
281 259 277 2
282 259 278 1
283 260 261 1
284 260 262 1
285 260 287 1
286 260 288 1
287 262 263 1
288 262 264 1
289 262 286 1
290 263 268 1
291 264 265 1
292 264 266 1
293 264 285 1
294 265 289 1
295 266 267 1
296 266 268 1
297 266 284 1
298 267 279 1
299 268 269 1
300 268 283 1
301 269 270 1
302 269 276 1
303 270 271 2
304 270 272 1
305 272 273 1
306 272 280 1
307 273 274 2
308 273 275 1
309 275 276 2
310 275 281 1
311 276 282 1
312 289 291 1
313 289 310 2
314 289 311 1
315 290 291 1
316 290 292 1
317 290 321 1
318 290 322 1
319 292 293 1
320 292 294 1
321 292 320 1
322 293 298 1
323 294 295 1
324 294 296 1
325 294 318 1
326 295 323 1
327 296 297 1
328 296 298 1
329 296 316 1
330 297 312 1
331 298 309 1
332 298 315 1
333 299 300 1
334 299 305 1
335 299 313 1
336 300 301 1
337 300 302 2
338 301 317 1
339 301 319 1
340 302 303 1
341 303 304 2
342 303 309 1
343 304 305 1
344 304 307 1
345 305 306 2
346 307 308 2
347 308 309 1
348 308 314 1
349 323 325 1
350 323 343 2
351 323 344 1
352 324 325 1
353 324 326 1
354 324 352 1
355 324 355 1
356 326 327 1
357 326 328 1
358 326 351 1
359 327 332 1
360 328 329 1
361 328 330 1
362 328 350 1
363 329 356 1
364 330 331 1
365 330 332 1
366 330 349 1
367 331 345 1
368 332 342 1
369 332 348 1
370 333 334 1
371 333 338 2
372 334 335 2
373 334 346 1
374 335 336 1
375 336 337 2
376 336 342 1
377 337 338 1
378 337 340 1
379 338 339 1
380 339 353 1
381 339 354 1
382 340 341 2
383 341 342 1
384 341 347 1
385 356 358 1
386 356 377 2
387 356 378 1
388 357 358 1
389 357 359 1
390 357 388 1
391 357 389 1
392 359 360 1
393 359 361 1
394 359 387 1
395 360 365 1
396 361 362 1
397 361 363 1
398 361 385 1
399 362 390 1
400 363 364 1
401 363 365 1
402 363 383 1
403 364 379 1
404 365 376 1
405 365 382 1
406 366 367 1
407 366 372 1
408 366 380 1
409 367 368 1
410 367 369 2
411 368 384 1
412 368 386 1
413 369 370 1
414 370 371 2
415 370 376 1
416 371 372 1
417 371 374 1
418 372 373 2
419 374 375 2
420 375 376 1
421 375 381 1
422 390 392 1
423 390 408 2
424 390 409 1
425 391 392 1
426 391 393 1
427 391 418 1
428 391 420 1
429 393 394 1
430 393 395 1
431 393 416 1
432 394 399 1
433 395 396 1
434 395 397 1
435 395 415 1
436 396 421 1
437 397 398 1
438 397 399 1
439 397 414 1
440 398 410 1
441 399 400 1
442 399 413 1
443 400 401 1
444 400 407 1
445 401 402 2
446 401 403 1
447 403 404 2
448 404 405 1
449 404 406 1
450 405 417 1
451 405 419 1
452 406 407 2
453 406 411 1
454 407 412 1
455 421 423 1
456 421 439 2
457 421 440 1
458 422 423 1
459 422 424 1
460 422 449 1
461 422 451 1
462 424 425 1
463 424 426 1
464 424 447 1
465 425 430 1
466 426 427 1
467 426 428 1
468 426 446 1
469 427 452 1
470 428 429 1
471 428 430 1
472 428 445 1
473 429 441 1
474 430 431 1
475 430 444 1
476 431 432 1
477 431 438 1
478 432 433 2
479 432 434 1
480 434 435 2
481 435 436 1
482 435 437 1
483 436 448 1
484 436 450 1
485 437 438 2
486 437 442 1
487 438 443 1
488 452 454 1
489 452 470 2
490 452 471 1
491 453 454 1
492 453 455 1
493 453 480 1
494 453 481 1
495 455 456 1
496 455 457 1
497 455 479 1
498 456 461 1
499 457 458 1
500 457 459 1
501 457 478 1
502 458 482 1
503 459 460 1
504 459 461 1
505 459 477 1
506 460 472 1
507 461 462 1
508 461 476 1
509 462 463 1
510 462 469 1
511 463 464 2
512 463 465 1
513 465 466 1
514 465 473 1
515 466 467 2
516 466 468 1
517 468 469 2
518 468 474 1
519 469 475 1
520 482 484 1
521 482 503 2
522 482 504 1
523 483 484 1
524 483 485 1
525 483 514 1
526 483 515 1
527 485 486 1
528 485 487 1
529 485 513 1
530 486 491 1
531 487 488 1
532 487 489 1
533 487 511 1
534 488 516 1
535 489 490 1
536 489 491 1
537 489 509 1
538 490 505 1
539 491 502 1
540 491 508 1
541 492 493 1
542 492 498 1
543 492 506 1
544 493 494 1
545 493 495 2
546 494 510 1
547 494 512 1
548 495 496 1
549 496 497 2
550 496 502 1
551 497 498 1
552 497 500 1
553 498 499 2
554 500 501 2
555 501 502 1
556 501 507 1
557 516 518 1
558 516 537 2
559 516 538 1
560 517 518 1
561 517 519 1
562 517 548 1
563 517 549 1
564 519 520 1
565 519 521 1
566 519 547 1
567 520 525 1
568 521 522 1
569 521 523 1
570 521 545 1
571 522 550 1
572 523 524 1
573 523 525 1
574 523 543 1
575 524 539 1
576 525 536 1
577 525 542 1
578 526 527 1
579 526 532 1
580 526 540 1
581 527 528 1
582 527 529 2
583 528 544 1
584 528 546 1
585 529 530 1
586 530 531 2
587 530 536 1
588 531 532 1
589 531 534 1
590 532 533 2
591 534 535 2
592 535 536 1
593 535 541 1
594 550 552 1
595 550 571 2
596 550 572 1
597 551 552 1
598 551 553 1
599 551 582 1
600 551 583 1
601 553 554 1
602 553 555 1
603 553 581 1
604 554 559 1
605 555 556 1
606 555 557 1
607 555 579 1
608 556 584 1
609 557 558 1
610 557 559 1
611 557 577 1
612 558 573 1
613 559 570 1
614 559 576 1
615 560 561 1
616 560 566 1
617 560 574 1
618 561 562 1
619 561 563 2
620 562 578 1
621 562 580 1
622 563 564 1
623 564 565 2
624 564 570 1
625 565 566 1
626 565 568 1
627 566 567 2
628 568 569 2
629 569 570 1
630 569 575 1
631 584 586 1
632 584 604 2
633 584 605 1
634 585 586 1
635 585 587 1
636 585 613 1
637 585 616 1
638 587 588 1
639 587 589 1
640 587 612 1
641 588 593 1
642 589 590 1
643 589 591 1
644 589 611 1
645 590 617 1
646 591 592 1
647 591 593 1
648 591 610 1
649 592 606 1
650 593 603 1
651 593 609 1
652 594 595 1
653 594 599 2
654 595 596 2
655 595 607 1
656 596 597 1
657 597 598 2
658 597 603 1
659 598 599 1
660 598 601 1
661 599 600 1
662 600 614 1
663 600 615 1
664 601 602 2
665 602 603 1
666 602 608 1
667 617 619 1
668 617 638 2
669 617 639 1
670 618 619 1
671 618 620 1
672 618 649 1
673 618 650 1
674 620 621 1
675 620 622 1
676 620 648 1
677 621 626 1
678 622 623 1
679 622 624 1
680 622 646 1
681 623 651 1
682 624 625 1
683 624 626 1
684 624 644 1
685 625 640 1
686 626 637 1
687 626 643 1
688 627 628 1
689 627 633 1
690 627 641 1
691 628 629 1
692 628 630 2
693 629 645 1
694 629 647 1
695 630 631 1
696 631 632 2
697 631 637 1
698 632 633 1
699 632 635 1
700 633 634 2
701 635 636 2
702 636 637 1
703 636 642 1
704 651 653 1
705 651 669 2
706 651 670 1
707 652 653 1
708 652 654 1
709 652 679 1
710 652 681 1
711 654 655 1
712 654 656 1
713 654 677 1
714 655 660 1
715 656 657 1
716 656 658 1
717 656 676 1
718 657 682 1
719 658 659 1
720 658 660 1
721 658 675 1
722 659 671 1
723 660 661 1
724 660 674 1
725 661 662 1
726 661 668 1
727 662 663 2
728 662 664 1
729 664 665 2
730 665 666 1
731 665 667 1
732 666 678 1
733 666 680 1
734 667 668 2
735 667 672 1
736 668 673 1
737 682 684 1
738 682 700 2
739 682 701 1
740 683 684 1
741 683 685 1
742 683 710 1
743 683 711 1
744 685 686 1
745 685 687 1
746 685 709 1
747 686 691 1
748 687 688 1
749 687 689 1
750 687 708 1
751 688 712 1
752 689 690 1
753 689 691 1
754 689 707 1
755 690 702 1
756 691 692 1
757 691 706 1
758 692 693 1
759 692 699 1
760 693 694 2
761 693 695 1
762 695 696 1
763 695 703 1
764 696 697 2
765 696 698 1
766 698 699 2
767 698 704 1
768 699 705 1
769 712 714 1
770 712 730 2
771 712 731 1
772 713 714 1
773 713 715 1
774 713 740 1
775 713 742 1
776 715 716 1
777 715 717 1
778 715 738 1
779 716 721 1
780 717 718 1
781 717 719 1
782 717 737 1
783 718 743 1
784 719 720 1
785 719 721 1
786 719 736 1
787 720 732 1
788 721 722 1
789 721 735 1
790 722 723 1
791 722 729 1
792 723 724 2
793 723 725 1
794 725 726 2
795 726 727 1
796 726 728 1
797 727 739 1
798 727 741 1
799 728 729 2
800 728 733 1
801 729 734 1
802 743 745 1
803 743 761 2
804 743 762 1
805 744 745 1
806 744 746 1
807 744 771 1
808 744 772 1
809 746 747 1
810 746 748 1
811 746 770 1
812 747 752 1
813 748 749 1
814 748 750 1
815 748 769 1
816 749 773 1
817 750 751 1
818 750 752 1
819 750 768 1
820 751 763 1
821 752 753 1
822 752 767 1
823 753 754 1
824 753 760 1
825 754 755 2
826 754 756 1
827 756 757 1
828 756 764 1
829 757 758 2
830 757 759 1
831 759 760 2
832 759 765 1
833 760 766 1
834 773 775 1
835 773 791 2
836 773 792 1
837 774 775 1
838 774 776 1
839 774 801 1
840 774 803 1
841 776 777 1
842 776 778 1
843 776 799 1
844 777 782 1
845 778 779 1
846 778 780 1
847 778 798 1
848 779 804 1
849 780 781 1
850 780 782 1
851 780 797 1
852 781 793 1
853 782 783 1
854 782 796 1
855 783 784 1
856 783 790 1
857 784 785 2
858 784 786 1
859 786 787 2
860 787 788 1
861 787 789 1
862 788 800 1
863 788 802 1
864 789 790 2
865 789 794 1
866 790 795 1
867 804 806 1
868 804 822 2
869 804 823 1
870 805 806 1
871 805 807 1
872 805 832 1
873 805 833 1
874 807 808 1
875 807 809 1
876 807 831 1
877 808 813 1
878 809 810 1
879 809 811 1
880 809 830 1
881 810 834 1
882 811 812 1
883 811 813 1
884 811 829 1
885 812 824 1
886 813 814 1
887 813 828 1
888 814 815 1
889 814 821 1
890 815 816 2
891 815 817 1
892 817 818 1
893 817 825 1
894 818 819 2
895 818 820 1
896 820 821 2
897 820 826 1
898 821 827 1
899 834 836 1
900 834 855 2
901 834 856 1
902 835 836 1
903 835 837 1
904 835 866 1
905 835 867 1
906 837 838 1
907 837 839 1
908 837 865 1
909 838 843 1
910 839 840 1
911 839 841 1
912 839 863 1
913 840 868 1
914 841 842 1
915 841 843 1
916 841 861 1
917 842 857 1
918 843 854 1
919 843 860 1
920 844 845 1
921 844 850 1
922 844 858 1
923 845 846 1
924 845 847 2
925 846 862 1
926 846 864 1
927 847 848 1
928 848 849 2
929 848 854 1
930 849 850 1
931 849 852 1
932 850 851 2
933 852 853 2
934 853 854 1
935 853 859 1
936 868 870 1
937 868 886 2
938 868 887 1
939 869 870 1
940 869 871 1
941 869 896 1
942 869 898 1
943 871 872 1
944 871 873 1
945 871 894 1
946 872 877 1
947 873 874 1
948 873 875 1
949 873 893 1
950 874 899 1
951 875 876 1
952 875 877 1
953 875 892 1
954 876 888 1
955 877 878 1
956 877 891 1
957 878 879 1
958 878 885 1
959 879 880 2
960 879 881 1
961 881 882 2
962 882 883 1
963 882 884 1
964 883 895 1
965 883 897 1
966 884 885 2
967 884 889 1
968 885 890 1
969 899 901 1
970 899 917 2
971 899 918 1
972 900 901 1
973 900 902 1
974 900 928 1
975 900 930 1
976 902 903 1
977 902 904 1
978 902 926 1
979 903 908 1
980 904 905 1
981 904 906 1
982 904 925 1
983 905 920 1
984 906 907 1
985 906 908 1
986 906 924 1
987 907 919 1
988 908 909 1
989 908 923 1
990 909 910 1
991 909 916 1
992 910 911 2
993 910 912 1
994 912 913 2
995 913 914 1
996 913 915 1
997 914 927 1
998 914 929 1
999 915 916 2
1000 915 921 1
1001 916 922 1
@<TRIPOS>SUBSTRUCTURE
1	G17	1	RESIDUE	1 B	G
2	G18	33	RESIDUE	1 B	G
3	C19	67	RESIDUE	1 B	C
4	A20	98	RESIDUE	1 B	A
5	G21	131	RESIDUE	1 B	G
6	A22	165	RESIDUE	1 B	A
7	U23	198	RESIDUE	1 B	U
8	C24	228	RESIDUE	1 B	C
9	U25	259	RESIDUE	1 B	U
10	G26	289	RESIDUE	1 B	G
11	A27	323	RESIDUE	1 B	A
12	G28	356	RESIDUE	1 B	G
13	C29	390	RESIDUE	1 B	C
14	C30	421	RESIDUE	1 B	C
15	U31	452	RESIDUE	1 B	U
16	G32	482	RESIDUE	1 B	G
17	G33	516	RESIDUE	1 B	G
18	G34	550	RESIDUE	1 B	G
19	A35	584	RESIDUE	1 B	A
20	G36	617	RESIDUE	1 B	G
21	C37	651	RESIDUE	1 B	C
22	U38	682	RESIDUE	1 B	U
23	C39	712	RESIDUE	1 B	C
24	U40	743	RESIDUE	1 B	U
25	C41	773	RESIDUE	1 B	C
26	U42	804	RESIDUE	1 B	U
27	G43	834	RESIDUE	1 B	G
28	C44	868	RESIDUE	1 B	C
29	C45	899	RESIDUE	1 B	C
